/*--------------------------------*- C++ -*----------------------------------*
  =========                 |
  \\      /  F ield         | OpenFOAM: The Open Source CFD Toolbox
   \\    /   O peration     | Website:  https://openfoam.org
    \\  /    A nd           | Version:  dev
     \\/     M anipulation  |
\*---------------------------------------------------------------------------*/
FoamFile
{
    version     2.0;
    format      ascii;
    class       vectorField;
    location    "constant";
    object      positions;
}
// * * * * * * * * * * * * * * * * * * * * * * * * * * * * * * * * * * * * * //
729
(
(89 1 24)
(97 29 25)
(32 95 9)
(32 56 89)
(72 88 9)
(93 68 50)
(12 74 74)
(83 12 22)
(97 19 48)
(52 74 96)
(32 25 50)
(42 33 86)
(69 62 32)
(11 33 67)
(99 19 4)
(10 2 63)
(27 92 52)
(49 14 46)
(91 83 77)
(46 5 33)
(59 74 89)
(12 40 95)
(47 98 46)
(15 54 3)
(74 93 83)
(85 18 95)
(19 67 60)
(91 4 47)
(36 68 43)
(84 60 17)
(89 73 15)
(90 78 94)
(85 24 47)
(12 58 31)
(85 57 24)
(17 97 63)
(21 89 53)
(38 9 80)
(72 82 7)
(47 68 94)
(6 39 13)
(69 97 94)
(12 86 75)
(16 60 26)
(66 73 57)
(36 38 61)
(75 58 58)
(20 79 54)
(28 43 93)
(25 47 87)
(88 11 87)
(63 64 25)
(92 98 42)
(41 52 80)
(10 48 6)
(78 18 17)
(24 46 57)
(64 38 19)
(17 53 47)
(3 73 7)
(53 91 18)
(45 93 64)
(26 76 89)
(33 94 96)
(97 24 11)
(76 49 28)
(52 57 3)
(1 27 5)
(21 3 1)
(27 41 53)
(78 66 82)
(73 59 67)
(94 34 75)
(84 55 73)
(84 62 44)
(20 9 79)
(7 17 23)
(36 58 83)
(32 50 24)
(99 74 81)
(22 60 21)
(73 23 59)
(63 50 40)
(93 31 48)
(98 58 71)
(85 67 24)
(91 6 52)
(15 17 72)
(19 27 69)
(74 35 68)
(44 4 93)
(29 87 85)
(34 29 78)
(69 56 72)
(50 25 43)
(23 65 10)
(37 21 5)
(63 53 11)
(49 11 36)
(5 83 78)
(67 60 46)
(19 68 4)
(67 87 56)
(82 9 21)
(39 7 39)
(90 16 65)
(15 51 59)
(52 45 58)
(6 87 28)
(74 99 66)
(81 5 90)
(80 77 16)
(29 28 19)
(98 63 50)
(30 30 65)
(64 67 85)
(20 81 63)
(28 80 21)
(16 59 89)
(52 16 37)
(21 39 82)
(98 34 33)
(52 72 23)
(2 47 57)
(67 69 19)
(66 74 86)
(57 82 3)
(66 66 17)
(49 72 76)
(71 26 31)
(57 6 1)
(21 68 82)
(2 34 69)
(17 11 96)
(61 31 42)
(81 68 46)
(55 56 85)
(41 95 34)
(3 59 1)
(81 76 86)
(28 68 68)
(41 54 70)
(75 17 98)
(5 47 81)
(76 94 18)
(30 52 89)
(3 53 12)
(56 36 75)
(88 67 90)
(80 75 58)
(2 26 19)
(56 18 91)
(56 26 62)
(77 53 30)
(90 70 20)
(89 87 20)
(37 51 39)
(26 35 51)
(24 34 56)
(88 83 60)
(62 23 17)
(36 29 38)
(40 5 71)
(86 97 82)
(89 30 22)
(36 25 35)
(64 76 57)
(44 63 76)
(79 40 87)
(44 44 40)
(67 24 87)
(93 98 42)
(83 72 98)
(11 66 84)
(20 58 50)
(49 22 14)
(89 82 77)
(46 55 12)
(95 66 1)
(1 52 20)
(96 51 35)
(66 49 87)
(14 77 90)
(29 96 79)
(11 84 85)
(42 95 98)
(64 17 25)
(27 99 94)
(57 88 19)
(59 76 99)
(80 25 46)
(24 89 33)
(38 66 33)
(24 49 9)
(94 63 35)
(94 96 45)
(49 43 76)
(62 15 93)
(61 28 56)
(44 41 88)
(62 87 27)
(92 19 2)
(32 29 37)
(81 80 35)
(3 26 95)
(9 46 72)
(53 73 94)
(81 16 86)
(93 96 70)
(20 81 51)
(2 72 97)
(72 47 85)
(90 50 65)
(90 49 71)
(82 66 84)
(88 83 20)
(11 60 55)
(54 38 59)
(56 15 29)
(59 98 18)
(52 65 19)
(53 86 79)
(4 56 7)
(48 2 79)
(21 4 73)
(82 20 96)
(37 95 23)
(47 16 99)
(5 81 93)
(2 27 90)
(89 45 19)
(26 72 60)
(9 38 95)
(25 78 97)
(57 73 19)
(7 36 96)
(93 15 6)
(74 14 23)
(84 51 13)
(22 29 79)
(45 23 54)
(64 85 54)
(16 45 4)
(3 11 34)
(55 79 55)
(8 21 81)
(72 58 97)
(41 96 79)
(15 2 93)
(4 28 16)
(35 88 20)
(31 76 91)
(99 22 47)
(9 87 64)
(62 98 33)
(56 61 36)
(75 27 31)
(77 58 98)
(19 34 8)
(73 39 87)
(51 5 84)
(86 97 39)
(26 88 90)
(17 69 64)
(48 73 78)
(93 55 99)
(71 12 28)
(94 60 87)
(5 61 1)
(22 22 56)
(91 45 57)
(17 41 80)
(25 79 1)
(82 57 85)
(82 31 13)
(12 89 92)
(31 82 38)
(55 1 94)
(71 31 86)
(48 9 61)
(50 80 39)
(10 92 58)
(7 81 19)
(67 50 14)
(20 37 50)
(17 29 36)
(1 44 11)
(6 37 9)
(58 49 74)
(87 43 50)
(80 44 67)
(40 70 98)
(12 59 63)
(53 96 79)
(9 53 21)
(70 94 30)
(12 16 87)
(11 78 26)
(27 71 10)
(34 88 11)
(78 37 1)
(84 88 19)
(29 28 4)
(75 91 54)
(39 61 79)
(92 50 34)
(22 4 24)
(52 23 54)
(24 89 44)
(93 46 50)
(95 76 36)
(69 45 9)
(86 35 69)
(63 45 21)
(25 68 11)
(4 51 30)
(98 29 30)
(86 2 13)
(44 5 5)
(78 49 4)
(48 78 49)
(28 32 28)
(46 30 25)
(39 97 36)
(7 59 44)
(67 71 83)
(44 76 20)
(14 42 50)
(21 43 7)
(22 84 83)
(12 14 47)
(37 74 65)
(9 38 77)
(57 46 72)
(55 77 41)
(27 16 97)
(7 77 79)
(73 33 75)
(52 44 86)
(4 23 28)
(30 86 46)
(43 90 68)
(34 39 6)
(66 85 29)
(50 46 48)
(69 16 46)
(82 51 32)
(62 85 20)
(29 39 64)
(26 66 94)
(42 25 60)
(86 11 17)
(70 79 86)
(49 8 9)
(39 98 61)
(76 54 68)
(56 18 59)
(39 44 79)
(93 68 41)
(57 96 35)
(95 68 94)
(94 90 52)
(68 57 27)
(13 80 40)
(84 82 36)
(24 41 47)
(47 16 21)
(9 83 87)
(22 68 61)
(86 28 51)
(90 16 12)
(86 67 59)
(43 33 6)
(13 71 40)
(71 73 45)
(20 30 27)
(10 96 47)
(82 92 77)
(26 20 90)
(57 3 52)
(81 74 58)
(66 35 8)
(40 21 2)
(57 64 20)
(22 73 34)
(46 14 37)
(67 15 81)
(99 50 45)
(59 4 34)
(98 6 30)
(48 84 66)
(70 7 50)
(91 40 82)
(81 10 56)
(10 42 83)
(57 84 71)
(20 7 28)
(29 94 84)
(4 98 94)
(79 86 10)
(29 23 44)
(16 79 15)
(57 47 24)
(61 13 13)
(55 17 68)
(62 6 33)
(30 44 55)
(46 49 18)
(54 97 56)
(31 97 85)
(39 8 12)
(8 32 5)
(74 39 74)
(55 34 30)
(46 5 85)
(64 97 41)
(94 81 53)
(89 19 64)
(50 29 45)
(76 46 75)
(24 9 2)
(40 42 94)
(79 86 78)
(85 60 51)
(57 64 30)
(95 71 68)
(86 7 20)
(42 44 99)
(16 13 59)
(88 96 73)
(6 88 71)
(63 86 61)
(74 10 71)
(10 85 84)
(22 60 70)
(77 73 91)
(13 31 94)
(78 25 14)
(77 22 3)
(93 48 29)
(91 15 77)
(94 34 85)
(88 86 83)
(53 94 3)
(91 61 68)
(67 69 99)
(38 65 15)
(54 7 31)
(18 6 50)
(80 65 30)
(7 63 75)
(84 26 47)
(43 73 14)
(4 19 6)
(13 33 58)
(82 84 8)
(17 32 44)
(18 14 38)
(75 37 51)
(98 95 26)
(74 21 25)
(76 88 39)
(38 30 99)
(76 45 2)
(41 56 87)
(65 16 49)
(47 36 91)
(54 76 9)
(38 76 44)
(63 99 7)
(57 32 49)
(69 96 24)
(27 72 12)
(52 6 13)
(59 28 1)
(17 14 6)
(68 93 93)
(76 95 62)
(93 57 75)
(47 8 96)
(32 37 75)
(21 85 95)
(79 19 44)
(36 63 68)
(20 69 72)
(80 72 53)
(60 39 37)
(76 92 64)
(44 32 65)
(81 81 9)
(99 22 53)
(60 37 92)
(84 71 26)
(2 61 2)
(37 49 75)
(64 26 12)
(58 74 85)
(36 81 18)
(93 37 43)
(42 92 66)
(27 3 28)
(59 64 15)
(75 33 55)
(81 53 67)
(41 21 64)
(94 82 58)
(9 18 15)
(82 84 67)
(7 10 86)
(85 86 20)
(43 62 16)
(71 76 64)
(48 92 22)
(67 16 79)
(52 2 54)
(17 62 48)
(31 65 70)
(39 86 94)
(89 36 84)
(12 12 72)
(7 23 32)
(19 83 15)
(98 58 45)
(90 19 42)
(25 15 2)
(77 88 72)
(60 21 40)
(81 3 83)
(65 1 86)
(41 74 32)
(9 59 70)
(81 3 68)
(42 42 69)
(78 50 70)
(85 25 30)
(16 39 62)
(13 62 97)
(37 78 45)
(95 85 21)
(44 27 39)
(23 1 8)
(58 5 32)
(48 83 87)
(61 93 27)
(49 67 90)
(88 69 18)
(73 2 89)
(27 94 58)
(12 58 40)
(30 84 77)
(79 67 16)
(52 36 53)
(1 55 62)
(85 23 50)
(69 71 84)
(90 62 11)
(17 95 57)
(13 66 15)
(20 95 78)
(2 97 65)
(82 30 46)
(86 27 18)
(96 52 73)
(5 93 61)
(10 80 26)
(17 61 10)
(45 80 28)
(51 82 45)
(44 91 24)
(7 48 8)
(45 45 96)
(37 94 8)
(62 13 34)
(91 4 85)
(30 76 71)
(59 43 24)
(4 62 93)
(2 91 86)
(80 26 88)
(38 88 53)
(16 63 39)
(10 36 75)
(77 69 33)
(51 90 26)
(31 32 96)
(41 15 39)
(64 63 6)
(41 60 13)
(61 44 38)
(84 97 56)
(93 6 7)
(30 3 66)
(55 36 7)
(59 83 75)
(65 5 61)
(3 84 48)
(95 22 60)
(6 10 61)
(7 17 39)
(69 59 74)
(24 84 6)
(85 74 12)
(41 85 57)
(83 90 47)
(49 53 52)
(13 28 31)
(7 81 24)
(27 17 95)
(92 5 52)
(6 25 14)
(46 54 26)
(82 9 36)
(43 8 91)
(5 10 16)
(63 98 59)
(8 2 5)
(32 49 16)
(72 42 69)
(46 95 96)
(95 77 54)
(7 23 74)
(74 76 74)
(52 20 46)
(28 48 45)
(8 83 48)
(20 16 68)
(18 87 46)
(56 86 16)
(6 44 90)
(82 86 42)
(18 84 77)
(73 23 73)
(69 50 22)
(80 90 24)
(15 41 71)
(90 30 85)
(94 98 19)
(66 44 22)
(58 47 85)
(76 13 63)
(48 37 80)
(46 19 46)
(23 49 16)
(36 42 11)
(39 17 12)
(72 46 71)
(31 2 32)
(69 63 69)
(27 90 54)
(32 55 14)
(52 12 91)
(79 22 84)
(85 91 28)
(16 64 97)
(45 50 57)
(59 32 49)
(72 92 79)
(83 12 61)
(90 75 55)
(31 39 48)
(88 65 99)
(61 31 26)
(83 81 61)
(91 85 81)
(69 25 33)
(90 5 54)
(85 36 80)
(45 64 92)
(16 43 18)
(10 12 5)
(87 27 32)
(41 68 67)
(9 75 40)
(49 19 29)
(95 70 71)
(27 7 27)
(7 52 90)
(30 6 36)
(75 62 10)
(16 13 37)
(15 90 43)
(94 87 38)
(58 63 29)
(44 12 18)
(89 77 60)
(6 72 74)
(76 97 83)
(95 95 72)
(85 52 34)
(93 32 43)
(22 51 54)
(84 79 60)
(62 14 75)
(98 85 58)
(66 59 10)
(12 1 24)
(20 96 87)
(79 48 6)
(25 66 76)
(43 40 94)
(9 69 12)
(52 54 75)
(47 10 75)
(21 87 63)
(26 35 2)
(97 75 2)
(42 15 81)
(92 59 75)
(12 9 45)
(6 82 57)
(99 10 93)
(97 1 16)
(71 10 41)
(76 68 88)
(20 32 53)
(91 25 66)
(56 84 42)
(54 20 24)
(87 47 40)
(80 69 46)
(42 16 83)
(57 37 41)
(3 29 76)
(11 44 5)
(32 39 18)
(12 81 81)
(41 67 99)
(92 27 62)
(64 79 64)
)