/*--------------------------------*- C++ -*----------------------------------*
  =========                 |
  \\      /  F ield         | OpenFOAM: The Open Source CFD Toolbox
   \\    /   O peration     | Website:  https://openfoam.org
    \\  /    A nd           | Version:  dev
     \\/     M anipulation  |
\*---------------------------------------------------------------------------*/
FoamFile
{
    version     2.0;
    format      ascii;
    class       vectorField;
    location    "constant";
    object      positions;
}
// * * * * * * * * * * * * * * * * * * * * * * * * * * * * * * * * * * * * * //
21600
(
(82 48 64)
(59 15 35)
(47 63 52)
(88 66 88)
(80 72 41)
(85 95 6)
(91 49 52)
(61 33 86)
(44 63 27)
(26 70 42)
(34 56 40)
(38 51 49)
(68 82 26)
(12 72 79)
(56 76 11)
(89 22 92)
(84 90 72)
(40 85 84)
(58 39 38)
(69 25 31)
(47 82 49)
(3 99 41)
(88 34 46)
(87 99 29)
(43 31 4)
(90 25 36)
(24 88 90)
(65 89 59)
(86 60 6)
(12 63 54)
(21 24 81)
(72 36 2)
(14 17 1)
(79 44 39)
(93 53 59)
(66 27 53)
(81 67 81)
(24 43 37)
(2 53 95)
(31 83 53)
(48 31 62)
(6 74 46)
(78 24 9)
(30 37 92)
(25 16 1)
(57 68 63)
(58 51 94)
(24 22 86)
(82 41 97)
(27 65 71)
(28 70 68)
(12 38 14)
(21 6 96)
(32 24 25)
(31 49 13)
(22 94 76)
(38 87 35)
(83 51 20)
(76 6 89)
(23 30 96)
(27 19 30)
(2 86 60)
(8 92 85)
(17 41 6)
(70 1 22)
(5 26 37)
(77 32 44)
(64 74 40)
(49 42 18)
(52 83 95)
(10 51 61)
(82 48 58)
(43 25 46)
(88 44 23)
(98 50 35)
(4 77 84)
(59 73 33)
(97 56 14)
(64 97 20)
(26 44 5)
(62 90 57)
(64 96 61)
(38 1 91)
(46 45 28)
(96 35 49)
(33 96 58)
(40 32 25)
(43 20 18)
(82 92 95)
(94 42 65)
(58 49 94)
(17 22 89)
(53 22 33)
(52 49 79)
(31 2 47)
(62 62 47)
(84 24 69)
(24 56 25)
(87 11 52)
(56 87 39)
(10 42 98)
(34 8 24)
(58 76 34)
(67 6 95)
(21 38 28)
(36 91 98)
(36 2 84)
(67 20 14)
(54 8 78)
(27 72 72)
(95 14 28)
(28 44 94)
(17 44 16)
(71 22 98)
(75 99 98)
(95 66 56)
(20 42 40)
(48 79 10)
(76 64 85)
(50 95 90)
(37 13 22)
(88 91 56)
(6 93 26)
(8 99 97)
(50 22 51)
(51 48 50)
(79 41 78)
(8 14 23)
(18 55 4)
(61 68 47)
(86 76 59)
(41 77 41)
(15 41 51)
(91 80 70)
(5 93 75)
(2 56 94)
(66 11 98)
(86 69 62)
(58 69 18)
(79 21 60)
(79 82 50)
(92 58 83)
(77 84 98)
(64 67 38)
(6 24 89)
(89 63 6)
(94 4 24)
(18 63 1)
(89 13 53)
(13 1 17)
(46 86 56)
(46 61 51)
(58 9 63)
(7 71 63)
(91 67 65)
(16 98 38)
(87 8 83)
(57 17 76)
(53 60 43)
(18 63 19)
(50 45 20)
(30 21 64)
(66 70 55)
(52 13 14)
(83 24 36)
(39 94 1)
(64 99 96)
(51 65 14)
(9 77 80)
(70 94 71)
(44 23 6)
(6 12 72)
(85 7 76)
(31 60 78)
(46 87 96)
(49 67 19)
(27 82 51)
(93 8 93)
(10 54 90)
(78 56 65)
(20 1 4)
(46 73 19)
(8 27 23)
(69 73 76)
(3 90 66)
(99 72 16)
(26 64 89)
(45 37 95)
(87 68 97)
(11 99 19)
(83 99 82)
(36 52 53)
(15 94 88)
(54 99 1)
(65 11 62)
(85 39 39)
(98 54 35)
(52 29 33)
(49 6 18)
(67 60 97)
(8 79 49)
(41 25 39)
(27 60 13)
(73 53 90)
(27 63 27)
(89 57 36)
(77 24 8)
(18 94 81)
(81 98 66)
(78 44 45)
(30 53 98)
(63 95 72)
(98 27 90)
(44 99 4)
(99 39 18)
(37 23 15)
(58 64 52)
(27 45 65)
(65 84 67)
(82 10 97)
(76 15 27)
(4 28 35)
(95 73 20)
(32 43 30)
(53 38 59)
(88 97 92)
(56 76 24)
(99 99 49)
(24 63 91)
(39 75 56)
(64 73 46)
(16 48 91)
(81 65 48)
(5 46 46)
(51 65 48)
(29 8 69)
(10 14 52)
(37 3 92)
(3 72 7)
(77 76 1)
(20 68 22)
(27 19 42)
(33 69 83)
(62 10 78)
(22 23 24)
(3 57 78)
(92 79 67)
(22 4 72)
(34 17 6)
(95 85 83)
(60 13 43)
(70 44 75)
(80 93 44)
(51 68 20)
(47 69 40)
(40 93 34)
(56 58 48)
(40 77 59)
(80 89 50)
(23 53 22)
(40 71 91)
(52 69 38)
(94 15 22)
(9 17 68)
(84 32 79)
(38 49 99)
(57 38 57)
(61 91 29)
(53 25 3)
(78 84 43)
(72 70 14)
(10 87 53)
(58 82 94)
(65 97 49)
(79 35 33)
(41 7 16)
(71 76 54)
(97 86 6)
(60 97 79)
(14 27 12)
(86 76 33)
(2 62 24)
(39 43 3)
(63 26 46)
(49 21 44)
(39 89 35)
(38 51 56)
(67 21 58)
(90 30 74)
(89 6 96)
(45 64 31)
(97 88 29)
(92 2 13)
(74 59 48)
(77 99 94)
(9 56 35)
(59 76 44)
(1 76 83)
(23 91 60)
(61 91 42)
(16 82 79)
(78 41 65)
(48 63 94)
(59 27 51)
(54 86 22)
(83 39 48)
(83 66 99)
(56 51 92)
(34 15 66)
(34 81 93)
(77 42 35)
(25 96 87)
(21 21 46)
(44 33 15)
(77 84 64)
(28 75 33)
(30 77 64)
(16 91 90)
(76 72 6)
(81 54 97)
(1 6 91)
(81 86 97)
(74 12 97)
(43 83 6)
(14 94 19)
(82 75 72)
(53 7 93)
(9 6 10)
(81 3 86)
(30 77 76)
(33 71 78)
(7 83 53)
(39 78 27)
(11 61 89)
(9 69 52)
(44 29 82)
(13 45 89)
(91 13 7)
(88 17 4)
(42 49 65)
(46 39 47)
(54 53 49)
(56 39 38)
(54 8 59)
(99 16 34)
(82 35 5)
(82 68 80)
(86 48 40)
(22 60 56)
(22 65 72)
(17 90 95)
(78 17 84)
(75 74 11)
(90 71 15)
(93 26 72)
(94 63 29)
(32 91 6)
(86 70 22)
(18 18 33)
(35 60 53)
(35 36 62)
(44 27 74)
(63 25 33)
(3 74 82)
(74 2 83)
(8 51 53)
(96 51 72)
(31 16 19)
(48 12 92)
(26 78 62)
(46 41 88)
(82 80 42)
(62 15 22)
(37 80 5)
(28 42 15)
(13 98 50)
(56 4 46)
(5 35 84)
(81 28 36)
(93 53 62)
(87 84 31)
(44 63 80)
(19 89 59)
(15 35 79)
(30 61 76)
(49 12 5)
(45 20 57)
(41 1 82)
(7 23 90)
(22 17 47)
(63 14 5)
(61 36 7)
(52 77 13)
(30 66 67)
(37 94 64)
(34 61 74)
(1 72 54)
(11 81 48)
(53 16 40)
(24 60 47)
(92 79 71)
(8 28 60)
(54 55 56)
(69 2 48)
(45 79 55)
(53 36 2)
(96 79 6)
(74 65 99)
(38 96 44)
(23 24 11)
(81 50 87)
(22 35 85)
(82 85 81)
(75 56 62)
(39 73 54)
(15 23 39)
(47 54 84)
(6 75 80)
(64 99 76)
(60 11 41)
(15 76 77)
(43 72 72)
(54 24 83)
(49 22 26)
(52 64 93)
(30 80 79)
(65 68 39)
(24 29 38)
(81 38 66)
(9 83 67)
(88 7 88)
(46 30 72)
(63 83 30)
(85 60 11)
(8 60 30)
(96 35 51)
(24 33 85)
(47 37 9)
(40 5 27)
(10 17 39)
(20 93 97)
(86 91 10)
(75 30 61)
(94 21 58)
(43 33 16)
(50 98 43)
(5 67 81)
(35 13 50)
(71 96 68)
(94 57 21)
(81 77 47)
(50 27 30)
(14 65 77)
(53 94 89)
(15 87 26)
(34 5 34)
(4 48 4)
(95 35 55)
(79 42 71)
(12 73 94)
(55 61 65)
(59 43 35)
(50 46 8)
(84 93 53)
(93 11 59)
(68 14 34)
(43 31 68)
(80 64 8)
(12 20 92)
(34 31 24)
(60 58 32)
(10 45 6)
(95 75 12)
(6 14 11)
(10 7 71)
(27 9 19)
(19 91 36)
(42 74 42)
(82 3 95)
(17 73 78)
(9 23 28)
(82 96 93)
(50 48 5)
(31 62 51)
(81 5 38)
(85 70 43)
(36 26 75)
(59 95 83)
(53 26 2)
(54 25 35)
(74 46 66)
(28 72 88)
(2 36 8)
(29 72 87)
(92 29 86)
(22 43 26)
(38 88 11)
(32 2 5)
(44 60 9)
(19 52 20)
(68 50 61)
(85 6 96)
(8 64 11)
(63 79 23)
(87 46 49)
(23 72 69)
(37 5 49)
(27 97 72)
(66 77 87)
(42 36 81)
(27 85 32)
(48 68 84)
(66 55 44)
(89 76 87)
(67 6 4)
(65 42 80)
(31 27 48)
(24 92 69)
(54 69 64)
(35 37 94)
(4 34 70)
(55 47 7)
(48 24 77)
(59 79 89)
(87 19 36)
(74 54 36)
(78 13 76)
(40 80 68)
(58 82 79)
(30 32 90)
(11 72 57)
(63 5 30)
(52 4 2)
(86 96 61)
(22 75 6)
(19 64 12)
(40 87 56)
(27 58 1)
(38 87 42)
(17 17 72)
(88 51 43)
(64 10 34)
(71 27 77)
(61 97 67)
(1 21 81)
(69 79 36)
(13 93 91)
(70 66 55)
(47 26 25)
(2 37 18)
(83 75 88)
(90 27 50)
(76 99 50)
(72 22 81)
(5 35 23)
(18 47 49)
(80 17 53)
(41 10 93)
(69 36 15)
(97 44 94)
(9 39 98)
(97 61 56)
(60 42 43)
(53 94 51)
(80 24 15)
(66 77 24)
(40 67 48)
(59 3 88)
(10 59 29)
(58 39 22)
(65 29 60)
(90 9 26)
(26 28 27)
(14 30 84)
(15 31 31)
(57 75 30)
(42 73 95)
(44 73 60)
(65 4 77)
(81 55 66)
(11 88 66)
(76 38 11)
(88 92 59)
(89 43 96)
(54 1 57)
(37 78 66)
(8 60 7)
(76 27 12)
(74 63 66)
(49 61 50)
(30 80 4)
(5 64 72)
(53 36 31)
(32 23 12)
(68 76 50)
(89 79 64)
(24 63 93)
(45 66 95)
(41 40 68)
(77 92 86)
(23 32 6)
(44 55 47)
(47 38 95)
(49 74 82)
(23 92 59)
(40 10 1)
(62 54 11)
(54 55 90)
(40 65 37)
(83 36 86)
(68 47 86)
(73 63 3)
(90 58 67)
(38 55 97)
(10 42 67)
(15 17 4)
(29 77 48)
(45 6 81)
(4 44 99)
(22 84 32)
(59 60 24)
(49 1 11)
(58 3 26)
(42 64 86)
(99 18 15)
(12 80 88)
(89 36 33)
(43 71 37)
(50 78 99)
(42 68 44)
(1 23 69)
(16 31 23)
(57 34 53)
(22 91 32)
(3 17 88)
(46 75 13)
(83 63 66)
(26 24 72)
(64 14 77)
(36 13 53)
(17 84 47)
(70 60 98)
(32 85 19)
(73 22 84)
(22 50 73)
(73 66 95)
(21 46 85)
(18 45 11)
(14 17 91)
(57 34 61)
(96 94 53)
(38 17 91)
(93 54 85)
(67 22 26)
(25 52 82)
(57 81 33)
(83 4 11)
(96 27 64)
(22 5 31)
(10 73 18)
(13 2 35)
(12 31 37)
(70 63 94)
(59 53 95)
(63 64 74)
(37 38 66)
(16 34 35)
(65 28 45)
(95 66 69)
(22 77 61)
(55 17 43)
(97 73 52)
(24 51 34)
(87 5 90)
(98 99 56)
(91 46 38)
(16 55 2)
(4 45 45)
(1 1 42)
(38 68 65)
(93 93 31)
(21 78 3)
(99 67 8)
(19 32 27)
(61 79 35)
(1 41 55)
(24 93 6)
(16 45 71)
(50 86 76)
(60 64 84)
(97 3 52)
(64 65 61)
(47 54 3)
(27 63 47)
(54 70 57)
(89 80 3)
(81 40 85)
(45 22 67)
(45 21 26)
(49 48 81)
(41 89 88)
(53 13 56)
(78 9 7)
(36 93 46)
(78 73 48)
(32 96 12)
(53 43 50)
(22 56 77)
(84 40 73)
(33 73 52)
(30 78 83)
(9 90 52)
(68 99 61)
(23 62 72)
(9 68 51)
(46 54 85)
(98 16 94)
(72 43 55)
(31 17 61)
(84 15 66)
(70 99 51)
(4 12 44)
(6 60 21)
(98 93 81)
(45 58 17)
(77 61 10)
(69 85 64)
(2 66 8)
(24 16 47)
(99 2 67)
(53 95 79)
(62 69 78)
(89 41 53)
(39 50 8)
(18 73 65)
(63 76 63)
(67 66 33)
(96 95 39)
(37 16 21)
(46 93 97)
(93 79 32)
(10 52 16)
(81 31 49)
(34 81 59)
(63 56 19)
(95 69 17)
(59 19 10)
(46 60 86)
(23 26 39)
(79 75 48)
(76 14 58)
(76 61 65)
(5 14 68)
(85 74 28)
(73 3 15)
(99 13 41)
(51 59 71)
(16 43 92)
(7 55 5)
(56 32 85)
(92 21 27)
(52 58 98)
(99 87 96)
(48 77 57)
(31 64 74)
(68 97 7)
(20 29 54)
(1 36 9)
(15 88 5)
(79 54 77)
(35 95 77)
(80 72 66)
(31 99 14)
(89 82 61)
(31 13 49)
(4 89 82)
(61 11 89)
(20 83 5)
(65 17 72)
(27 71 16)
(39 10 97)
(90 61 28)
(98 24 9)
(61 30 94)
(45 51 89)
(9 9 75)
(52 49 25)
(40 93 21)
(42 36 51)
(44 67 80)
(79 32 15)
(16 81 92)
(33 47 57)
(94 41 44)
(14 38 91)
(26 14 73)
(50 14 8)
(75 21 79)
(20 79 88)
(44 31 68)
(97 16 75)
(83 13 30)
(23 22 7)
(22 13 82)
(1 99 70)
(65 75 96)
(86 36 74)
(65 63 55)
(44 1 11)
(8 60 54)
(43 42 79)
(4 19 12)
(62 49 55)
(68 13 85)
(8 62 58)
(33 26 66)
(31 88 94)
(28 67 74)
(81 29 61)
(60 35 58)
(40 7 37)
(42 64 61)
(1 94 62)
(50 4 69)
(10 78 90)
(8 52 95)
(7 35 80)
(91 4 65)
(64 78 23)
(71 73 41)
(98 25 31)
(12 90 71)
(40 99 94)
(55 75 67)
(21 7 31)
(55 17 35)
(54 89 60)
(82 88 26)
(79 68 18)
(56 29 63)
(18 79 54)
(88 45 7)
(85 54 70)
(76 97 1)
(82 60 69)
(38 72 3)
(89 69 42)
(59 59 33)
(22 13 31)
(14 94 70)
(31 78 50)
(60 70 50)
(1 8 70)
(33 6 20)
(72 5 90)
(68 45 62)
(36 74 31)
(70 48 50)
(94 23 61)
(97 87 22)
(34 90 31)
(9 62 86)
(6 59 21)
(4 69 14)
(27 29 13)
(86 94 34)
(24 71 78)
(74 44 89)
(84 58 41)
(5 42 12)
(66 3 28)
(23 82 26)
(34 4 50)
(5 45 86)
(76 81 64)
(58 75 6)
(24 17 36)
(96 75 37)
(2 25 77)
(76 39 43)
(96 4 41)
(43 63 46)
(69 87 48)
(1 15 87)
(6 68 32)
(89 57 68)
(9 35 47)
(98 97 27)
(63 7 70)
(98 87 23)
(27 73 83)
(27 99 57)
(62 87 82)
(93 88 61)
(53 81 36)
(1 12 39)
(72 26 48)
(49 73 93)
(39 63 39)
(93 52 37)
(74 57 53)
(14 18 52)
(31 35 3)
(81 6 74)
(76 34 56)
(39 31 90)
(14 82 1)
(72 68 24)
(65 60 42)
(4 76 28)
(64 69 42)
(9 59 80)
(98 71 79)
(82 76 18)
(69 78 15)
(88 98 56)
(83 32 7)
(52 58 4)
(40 28 91)
(56 56 80)
(66 97 67)
(83 7 98)
(46 80 37)
(7 66 73)
(24 29 26)
(22 38 12)
(99 31 78)
(7 13 27)
(22 3 36)
(21 46 94)
(80 24 81)
(93 96 81)
(59 37 80)
(89 21 17)
(27 49 64)
(50 54 44)
(56 64 23)
(24 78 60)
(65 74 63)
(48 31 93)
(97 8 68)
(26 42 9)
(28 62 14)
(62 3 36)
(53 42 74)
(89 1 99)
(8 43 40)
(20 34 89)
(69 56 3)
(85 38 94)
(25 88 56)
(73 97 18)
(83 91 36)
(35 81 69)
(51 65 54)
(26 34 28)
(21 20 10)
(90 97 8)
(17 27 6)
(48 21 54)
(89 22 87)
(57 51 8)
(13 87 5)
(17 23 77)
(19 36 63)
(13 51 36)
(88 31 71)
(12 52 66)
(19 45 39)
(15 6 73)
(38 59 59)
(68 58 12)
(58 74 79)
(26 31 14)
(7 22 97)
(5 91 3)
(28 73 91)
(78 18 41)
(33 43 20)
(97 67 50)
(9 88 53)
(93 98 99)
(51 51 23)
(50 68 59)
(41 52 39)
(78 39 37)
(8 38 67)
(56 13 12)
(36 94 22)
(64 57 24)
(50 25 60)
(61 8 23)
(19 18 69)
(15 92 19)
(98 77 23)
(76 43 42)
(24 93 12)
(65 56 4)
(20 95 55)
(79 87 45)
(46 75 84)
(38 64 18)
(43 39 29)
(3 18 65)
(75 46 24)
(68 44 45)
(65 75 37)
(8 53 24)
(30 41 37)
(69 93 97)
(34 40 31)
(18 25 6)
(7 83 2)
(73 97 39)
(96 22 68)
(36 25 22)
(92 73 23)
(52 54 49)
(76 95 5)
(26 33 92)
(14 5 53)
(32 71 34)
(51 96 1)
(48 46 57)
(84 44 25)
(82 97 7)
(73 59 80)
(20 11 51)
(21 12 97)
(73 86 45)
(51 2 81)
(22 63 62)
(68 49 75)
(4 99 91)
(64 61 20)
(4 74 54)
(59 34 24)
(22 51 90)
(26 37 51)
(9 39 57)
(87 36 36)
(17 20 93)
(30 86 98)
(9 66 67)
(6 21 23)
(29 56 80)
(48 72 67)
(60 45 57)
(32 92 59)
(94 39 48)
(87 2 92)
(20 91 51)
(34 78 65)
(36 30 3)
(37 30 96)
(19 28 35)
(98 2 72)
(60 56 79)
(63 13 77)
(73 99 76)
(54 60 88)
(63 68 58)
(19 80 14)
(85 8 35)
(45 31 26)
(54 55 24)
(19 86 22)
(41 90 68)
(29 68 4)
(17 45 86)
(69 87 83)
(15 79 45)
(77 97 21)
(45 10 26)
(54 40 56)
(66 62 4)
(80 57 86)
(17 79 6)
(41 71 45)
(17 54 30)
(2 54 46)
(35 47 69)
(35 46 48)
(1 31 15)
(61 91 12)
(88 55 4)
(45 45 43)
(67 72 39)
(99 80 24)
(4 70 2)
(58 78 52)
(27 73 3)
(64 54 72)
(50 86 88)
(88 48 61)
(49 12 82)
(90 74 93)
(23 90 11)
(53 79 7)
(82 30 24)
(12 92 14)
(81 60 86)
(90 42 11)
(65 66 3)
(59 38 46)
(20 80 46)
(57 71 6)
(68 58 77)
(24 48 86)
(19 28 70)
(62 2 81)
(29 93 85)
(57 54 49)
(26 34 13)
(28 87 28)
(63 40 44)
(41 96 18)
(54 75 66)
(72 90 92)
(40 25 67)
(66 58 55)
(72 8 48)
(61 50 65)
(25 61 55)
(74 95 62)
(25 81 73)
(84 92 30)
(84 93 48)
(60 23 82)
(22 35 52)
(56 45 27)
(29 59 95)
(28 28 8)
(57 58 16)
(68 39 77)
(33 40 5)
(79 52 45)
(67 86 90)
(94 85 58)
(48 60 51)
(1 63 57)
(2 7 57)
(18 22 51)
(67 21 42)
(76 88 78)
(67 82 70)
(62 90 28)
(13 53 43)
(75 42 57)
(59 69 41)
(33 17 18)
(59 93 43)
(49 5 65)
(22 96 84)
(15 43 48)
(53 65 65)
(12 19 47)
(39 22 61)
(35 42 36)
(66 74 52)
(3 68 4)
(75 7 88)
(54 45 44)
(26 31 46)
(54 79 4)
(24 71 71)
(32 51 53)
(45 64 73)
(75 78 22)
(75 13 69)
(37 90 33)
(51 12 99)
(77 20 63)
(98 10 89)
(16 26 17)
(31 77 60)
(38 37 47)
(52 81 83)
(94 72 83)
(52 48 6)
(96 3 10)
(78 32 43)
(11 61 68)
(14 23 99)
(99 43 59)
(9 83 11)
(12 10 94)
(4 39 86)
(75 52 25)
(51 51 73)
(58 40 63)
(47 65 82)
(68 27 80)
(24 49 53)
(78 4 15)
(8 57 58)
(16 17 67)
(70 78 47)
(78 51 40)
(37 12 22)
(90 9 90)
(40 1 5)
(56 27 8)
(15 80 23)
(30 96 55)
(80 27 31)
(51 63 85)
(42 50 98)
(32 32 57)
(27 11 54)
(71 35 41)
(68 8 87)
(4 50 24)
(8 36 38)
(93 95 10)
(62 39 45)
(54 39 88)
(67 24 96)
(70 39 46)
(52 44 62)
(1 11 71)
(81 40 42)
(88 59 42)
(73 97 86)
(2 37 13)
(58 83 24)
(29 62 4)
(90 86 93)
(43 23 75)
(86 18 74)
(10 96 3)
(53 98 17)
(85 58 27)
(87 33 49)
(39 10 52)
(27 65 22)
(37 39 67)
(30 93 21)
(77 31 16)
(77 6 53)
(81 38 61)
(87 86 18)
(87 51 93)
(98 93 90)
(83 84 95)
(8 62 23)
(66 84 77)
(58 26 28)
(85 81 59)
(30 40 31)
(95 59 13)
(80 29 95)
(63 91 70)
(98 78 9)
(18 6 3)
(27 74 59)
(48 96 17)
(65 63 11)
(97 25 93)
(82 86 81)
(9 75 97)
(52 27 88)
(22 94 97)
(70 39 28)
(77 41 95)
(40 52 81)
(51 61 21)
(61 15 49)
(14 69 59)
(65 86 28)
(63 76 38)
(61 7 91)
(68 65 41)
(66 89 21)
(9 2 47)
(6 95 51)
(37 31 28)
(94 40 4)
(17 53 16)
(63 45 47)
(82 97 97)
(70 18 60)
(51 4 75)
(40 55 50)
(25 42 45)
(98 20 85)
(31 18 94)
(62 82 20)
(50 51 65)
(58 94 84)
(44 30 45)
(21 90 66)
(7 18 17)
(35 3 50)
(8 89 90)
(2 12 8)
(37 97 67)
(96 6 71)
(12 8 64)
(65 85 39)
(94 71 65)
(16 90 67)
(36 19 34)
(67 70 73)
(87 45 88)
(28 34 53)
(36 31 37)
(3 53 57)
(49 91 40)
(76 53 63)
(75 24 74)
(68 25 52)
(98 6 41)
(75 71 10)
(61 42 80)
(84 98 71)
(24 39 72)
(60 1 39)
(55 87 67)
(71 95 91)
(20 24 32)
(10 44 4)
(4 84 16)
(50 52 49)
(43 65 50)
(29 52 28)
(59 95 88)
(60 71 31)
(53 39 39)
(82 61 38)
(86 29 37)
(44 17 85)
(34 12 64)
(40 52 26)
(77 63 31)
(24 67 41)
(31 14 5)
(35 16 44)
(31 20 92)
(20 11 14)
(50 74 74)
(16 34 91)
(65 55 92)
(99 47 85)
(63 98 28)
(62 81 3)
(85 26 74)
(36 90 30)
(6 85 40)
(74 91 89)
(30 76 31)
(10 85 9)
(34 10 2)
(38 54 10)
(82 2 4)
(20 83 34)
(22 46 93)
(49 8 5)
(74 13 2)
(66 54 3)
(69 41 13)
(23 82 27)
(7 65 15)
(92 12 44)
(74 49 36)
(91 89 86)
(63 20 97)
(82 43 85)
(70 44 4)
(47 43 32)
(36 58 88)
(88 98 51)
(14 99 29)
(49 41 27)
(73 72 22)
(60 13 69)
(49 76 95)
(27 14 43)
(98 52 37)
(39 77 78)
(26 48 96)
(21 23 52)
(15 73 31)
(71 33 27)
(99 33 5)
(32 99 91)
(25 94 2)
(99 94 75)
(17 48 11)
(66 16 83)
(59 71 98)
(78 80 42)
(48 82 98)
(90 5 40)
(72 68 86)
(99 23 21)
(40 37 76)
(14 99 34)
(32 23 21)
(4 72 37)
(16 68 42)
(4 41 61)
(91 40 3)
(58 30 72)
(26 13 26)
(30 79 58)
(13 2 28)
(66 71 82)
(66 99 20)
(68 97 60)
(27 96 89)
(45 3 66)
(43 10 57)
(17 97 83)
(13 72 81)
(69 91 99)
(95 98 14)
(25 83 22)
(81 66 11)
(43 87 13)
(24 96 24)
(53 91 45)
(28 25 11)
(37 92 33)
(15 50 59)
(93 43 24)
(54 72 88)
(14 53 85)
(96 70 16)
(72 21 42)
(39 25 78)
(47 22 9)
(91 38 94)
(43 96 76)
(61 27 43)
(45 92 53)
(14 24 74)
(17 98 18)
(64 20 51)
(78 24 32)
(80 54 89)
(81 16 19)
(23 27 58)
(2 7 16)
(83 27 83)
(60 4 53)
(28 85 96)
(12 4 7)
(26 96 77)
(29 12 88)
(98 71 33)
(61 67 35)
(22 52 71)
(5 92 73)
(97 99 19)
(17 21 69)
(81 39 26)
(78 25 28)
(6 78 15)
(49 16 79)
(37 27 97)
(39 81 11)
(59 73 75)
(86 49 16)
(36 41 65)
(73 16 56)
(72 39 21)
(66 61 15)
(9 37 18)
(69 19 30)
(23 34 71)
(44 93 14)
(23 5 26)
(55 25 89)
(8 30 24)
(49 75 37)
(44 55 96)
(84 2 89)
(99 99 29)
(82 23 90)
(85 1 61)
(43 40 66)
(38 32 71)
(15 55 42)
(94 85 13)
(83 88 54)
(3 55 93)
(72 71 50)
(73 66 80)
(98 8 66)
(29 87 65)
(65 14 83)
(26 31 98)
(81 8 10)
(93 90 98)
(46 82 75)
(84 64 92)
(81 93 48)
(72 33 2)
(22 32 25)
(17 92 7)
(87 44 92)
(13 79 31)
(23 62 44)
(22 80 75)
(89 65 25)
(79 41 17)
(13 66 39)
(69 43 24)
(40 49 42)
(9 74 53)
(97 36 95)
(79 66 97)
(69 42 2)
(73 69 68)
(4 61 53)
(82 11 67)
(91 61 58)
(82 44 47)
(66 54 10)
(9 51 43)
(45 56 50)
(88 82 35)
(20 79 21)
(25 23 68)
(15 18 10)
(9 63 30)
(25 7 76)
(31 87 17)
(77 11 15)
(23 26 54)
(12 93 82)
(61 29 79)
(32 99 81)
(94 2 57)
(74 81 25)
(99 77 12)
(99 86 23)
(59 77 72)
(41 46 17)
(31 11 7)
(13 81 72)
(80 39 84)
(83 64 15)
(93 9 25)
(65 1 88)
(37 78 87)
(32 83 80)
(90 72 16)
(89 95 86)
(72 52 58)
(73 27 55)
(72 62 81)
(76 96 93)
(74 45 43)
(47 67 56)
(63 89 61)
(68 42 98)
(65 33 89)
(50 28 48)
(43 70 13)
(54 5 70)
(79 26 26)
(56 54 33)
(57 2 30)
(82 47 42)
(7 92 95)
(49 59 54)
(85 81 42)
(82 60 71)
(87 97 91)
(97 20 98)
(23 70 12)
(43 13 97)
(11 39 36)
(88 87 36)
(49 39 16)
(83 93 67)
(13 90 29)
(74 8 94)
(3 51 22)
(11 24 7)
(31 31 15)
(38 60 24)
(55 85 29)
(98 55 11)
(85 38 82)
(57 75 68)
(68 42 20)
(79 40 81)
(14 10 2)
(24 42 81)
(53 65 14)
(83 26 85)
(62 13 18)
(73 60 48)
(73 8 47)
(67 43 63)
(53 29 76)
(78 27 37)
(78 44 25)
(85 77 75)
(51 83 22)
(80 21 87)
(63 56 66)
(53 50 85)
(49 68 99)
(19 44 77)
(7 41 62)
(18 51 80)
(13 50 36)
(18 25 16)
(41 64 47)
(56 28 90)
(2 28 45)
(20 30 94)
(7 42 94)
(60 32 2)
(28 99 1)
(34 54 82)
(98 75 37)
(92 4 59)
(34 59 3)
(12 48 79)
(92 38 76)
(38 23 77)
(22 4 70)
(57 66 45)
(22 72 25)
(83 71 98)
(50 51 41)
(33 19 93)
(78 25 39)
(73 28 77)
(64 74 13)
(42 26 77)
(87 34 28)
(90 7 63)
(33 41 28)
(21 54 89)
(28 64 40)
(48 78 91)
(55 88 25)
(29 53 45)
(73 65 71)
(81 19 82)
(40 73 77)
(78 21 35)
(52 40 93)
(76 54 43)
(62 20 91)
(97 73 43)
(33 65 88)
(18 43 80)
(94 62 51)
(11 68 96)
(34 10 20)
(80 49 41)
(80 94 41)
(51 1 44)
(70 12 4)
(3 34 28)
(8 73 62)
(37 21 51)
(25 42 14)
(53 94 23)
(8 35 86)
(52 68 41)
(30 60 34)
(55 65 24)
(24 78 41)
(76 5 81)
(16 93 61)
(60 48 40)
(42 58 60)
(38 38 75)
(47 21 18)
(88 78 89)
(47 9 74)
(51 40 99)
(32 82 33)
(58 17 39)
(59 40 85)
(18 10 73)
(83 28 97)
(60 51 62)
(3 90 28)
(39 8 21)
(98 50 1)
(75 32 35)
(12 20 12)
(20 5 62)
(29 45 55)
(27 42 2)
(84 94 65)
(47 61 52)
(65 82 84)
(67 20 72)
(22 80 56)
(58 30 41)
(51 31 50)
(93 84 51)
(1 46 95)
(89 66 1)
(47 12 9)
(97 86 13)
(17 95 4)
(33 37 40)
(90 76 87)
(91 5 73)
(25 3 85)
(99 69 15)
(48 43 95)
(6 10 96)
(66 75 78)
(11 57 36)
(28 45 8)
(51 7 85)
(35 3 95)
(30 31 41)
(18 70 80)
(65 25 41)
(54 67 57)
(95 42 72)
(71 84 16)
(95 10 79)
(50 79 49)
(41 61 95)
(69 26 25)
(20 60 93)
(28 81 61)
(64 30 10)
(96 59 95)
(51 34 47)
(19 86 16)
(83 38 61)
(12 42 49)
(80 9 58)
(37 35 70)
(31 56 23)
(78 56 70)
(30 67 86)
(71 31 45)
(21 59 83)
(47 82 92)
(20 79 43)
(2 69 30)
(80 14 1)
(25 71 87)
(25 39 23)
(58 62 10)
(66 64 39)
(38 44 73)
(81 1 83)
(16 94 58)
(82 57 41)
(56 72 7)
(48 61 15)
(3 6 16)
(42 98 18)
(17 91 37)
(13 55 22)
(94 16 83)
(2 55 88)
(61 54 6)
(58 16 29)
(13 36 22)
(51 27 12)
(1 73 14)
(67 55 36)
(30 17 70)
(22 32 40)
(32 45 81)
(26 55 5)
(24 57 36)
(36 90 80)
(23 87 99)
(60 29 68)
(58 58 3)
(91 28 25)
(11 98 46)
(69 22 25)
(86 91 32)
(96 19 41)
(9 30 41)
(90 96 82)
(32 11 13)
(82 79 85)
(83 27 78)
(98 39 82)
(45 2 48)
(84 92 19)
(19 72 55)
(43 58 38)
(21 20 12)
(70 53 66)
(48 41 82)
(5 98 13)
(34 16 90)
(76 78 34)
(74 82 67)
(91 74 86)
(19 10 3)
(2 46 38)
(23 51 26)
(25 58 2)
(11 80 62)
(29 91 73)
(15 48 25)
(7 83 19)
(48 67 83)
(31 85 44)
(7 57 17)
(37 83 68)
(32 45 51)
(36 10 3)
(31 74 13)
(64 60 24)
(9 11 5)
(65 53 86)
(53 44 72)
(52 64 73)
(74 66 12)
(50 76 91)
(19 23 67)
(70 88 37)
(9 34 93)
(45 64 33)
(48 14 8)
(89 93 53)
(11 72 40)
(23 60 26)
(24 29 40)
(4 79 35)
(71 49 26)
(92 40 98)
(92 21 98)
(86 88 85)
(66 34 81)
(19 52 69)
(24 42 98)
(22 82 42)
(73 36 56)
(21 85 4)
(87 99 58)
(97 46 13)
(22 96 17)
(84 54 29)
(57 26 65)
(71 39 76)
(78 23 47)
(95 65 3)
(1 52 55)
(34 49 22)
(66 76 42)
(96 9 60)
(76 51 59)
(82 17 72)
(67 63 54)
(25 8 31)
(89 45 91)
(64 84 44)
(20 77 57)
(2 58 60)
(23 44 70)
(6 79 8)
(39 71 27)
(66 16 40)
(14 49 30)
(45 28 99)
(6 63 77)
(60 45 30)
(23 59 93)
(19 44 60)
(62 39 77)
(84 42 90)
(7 30 93)
(40 2 13)
(32 95 91)
(13 34 50)
(68 54 76)
(29 25 64)
(80 33 32)
(54 26 18)
(53 94 58)
(37 9 55)
(42 13 67)
(95 46 56)
(21 70 14)
(95 20 29)
(56 31 68)
(6 50 95)
(4 9 55)
(46 85 37)
(83 49 64)
(1 47 57)
(49 16 64)
(35 23 83)
(78 18 98)
(9 58 85)
(21 70 66)
(60 66 9)
(14 19 18)
(64 82 89)
(41 16 98)
(4 97 46)
(78 78 30)
(89 19 73)
(24 36 9)
(60 51 46)
(8 55 1)
(72 9 93)
(65 62 24)
(65 61 8)
(10 61 65)
(41 5 83)
(49 58 69)
(52 47 78)
(61 43 36)
(39 18 78)
(41 43 51)
(66 27 38)
(48 99 26)
(50 19 54)
(29 69 9)
(29 56 43)
(65 33 38)
(83 31 65)
(86 30 88)
(80 45 53)
(17 37 12)
(33 95 29)
(78 1 29)
(65 49 3)
(94 51 77)
(10 89 75)
(31 52 73)
(74 18 45)
(55 73 24)
(81 94 57)
(74 76 9)
(40 8 88)
(17 94 96)
(83 18 13)
(11 68 74)
(84 94 98)
(61 58 12)
(23 35 26)
(62 84 5)
(55 75 9)
(51 24 66)
(32 33 29)
(19 73 46)
(63 98 36)
(48 83 7)
(75 47 35)
(32 64 61)
(76 88 80)
(5 73 71)
(18 85 81)
(57 27 24)
(65 79 26)
(91 1 69)
(67 87 85)
(30 9 85)
(22 81 51)
(68 47 76)
(64 85 86)
(13 40 29)
(12 29 76)
(53 79 63)
(37 32 55)
(59 92 41)
(1 17 48)
(27 33 77)
(57 91 69)
(61 8 65)
(50 24 74)
(11 59 46)
(61 10 76)
(96 16 20)
(71 78 10)
(96 46 19)
(37 33 3)
(77 81 32)
(7 52 76)
(68 65 63)
(50 87 93)
(93 18 31)
(21 17 10)
(80 1 43)
(71 33 80)
(35 24 90)
(73 85 9)
(87 92 98)
(7 37 67)
(43 77 47)
(4 35 25)
(65 68 27)
(94 69 35)
(26 2 41)
(46 3 63)
(5 60 45)
(53 99 86)
(17 74 44)
(84 52 80)
(33 22 53)
(12 76 72)
(88 13 12)
(53 50 90)
(21 11 57)
(37 46 82)
(61 81 5)
(94 92 65)
(29 42 57)
(91 77 47)
(24 10 75)
(75 54 79)
(11 64 33)
(52 94 4)
(36 47 61)
(1 16 85)
(91 32 4)
(7 15 17)
(37 1 33)
(62 14 77)
(83 46 77)
(7 52 94)
(57 49 88)
(62 67 20)
(49 7 81)
(41 70 33)
(25 54 36)
(47 99 65)
(58 45 79)
(53 89 67)
(95 31 66)
(41 51 60)
(84 49 49)
(28 88 40)
(7 55 4)
(42 86 79)
(94 38 47)
(17 22 61)
(93 49 39)
(41 42 70)
(38 45 99)
(62 54 62)
(31 82 18)
(77 89 64)
(28 66 19)
(74 68 38)
(68 47 92)
(39 92 50)
(36 73 39)
(12 27 97)
(8 1 11)
(47 55 19)
(63 24 53)
(32 61 22)
(25 9 95)
(43 58 73)
(42 57 80)
(96 74 79)
(97 82 56)
(82 72 94)
(73 7 23)
(27 47 94)
(10 72 80)
(65 80 71)
(69 82 47)
(39 91 21)
(40 34 1)
(66 65 16)
(53 56 52)
(51 79 12)
(16 50 4)
(18 28 84)
(28 33 30)
(67 19 97)
(48 21 5)
(56 10 20)
(56 52 42)
(40 51 41)
(14 21 31)
(14 51 5)
(43 36 36)
(14 14 57)
(7 66 53)
(75 40 56)
(6 58 52)
(14 70 69)
(34 61 86)
(64 17 15)
(97 60 56)
(48 24 80)
(82 75 50)
(41 31 45)
(65 23 56)
(34 31 95)
(87 73 53)
(79 64 82)
(2 46 34)
(60 92 34)
(25 46 29)
(14 98 40)
(35 53 21)
(51 30 55)
(71 46 50)
(86 74 2)
(10 11 92)
(44 16 31)
(38 29 95)
(47 97 53)
(36 45 22)
(44 44 32)
(40 31 13)
(3 47 90)
(5 71 54)
(70 10 33)
(98 21 82)
(56 16 49)
(75 26 6)
(17 63 97)
(71 20 18)
(84 69 86)
(31 17 53)
(89 2 5)
(94 51 71)
(82 82 58)
(24 75 10)
(81 27 47)
(82 26 57)
(85 27 58)
(1 24 9)
(25 70 45)
(4 36 73)
(77 33 93)
(75 93 7)
(19 78 99)
(85 3 64)
(26 52 90)
(37 52 59)
(76 54 71)
(89 84 60)
(8 13 13)
(57 86 38)
(33 17 76)
(64 6 68)
(88 5 2)
(23 57 6)
(54 90 7)
(60 57 14)
(29 98 76)
(74 76 25)
(51 68 61)
(27 63 27)
(28 84 77)
(88 34 83)
(4 63 91)
(69 7 90)
(28 88 65)
(71 14 3)
(30 82 91)
(25 80 14)
(90 50 45)
(57 86 78)
(99 84 61)
(62 54 92)
(6 39 86)
(72 62 79)
(2 62 32)
(86 3 5)
(18 33 64)
(8 49 15)
(56 52 27)
(55 18 3)
(11 11 25)
(99 21 44)
(89 23 37)
(2 18 74)
(66 20 3)
(3 90 35)
(46 19 79)
(1 93 46)
(14 76 19)
(88 75 36)
(60 17 79)
(95 49 47)
(23 40 98)
(51 88 78)
(81 43 47)
(73 84 21)
(48 60 44)
(5 64 65)
(69 86 32)
(39 93 70)
(67 47 67)
(10 37 65)
(52 26 59)
(16 37 13)
(31 48 2)
(14 34 91)
(62 19 58)
(68 32 66)
(45 74 58)
(32 55 42)
(68 88 13)
(18 79 79)
(29 1 91)
(70 88 52)
(63 34 93)
(72 95 1)
(54 18 11)
(90 96 47)
(93 47 18)
(41 26 67)
(43 1 26)
(70 98 82)
(44 35 88)
(42 97 88)
(8 1 42)
(15 21 54)
(10 66 26)
(88 91 56)
(98 23 93)
(23 75 5)
(16 35 17)
(34 29 37)
(71 13 45)
(44 99 13)
(80 98 93)
(32 88 82)
(17 13 74)
(19 44 75)
(74 73 11)
(48 55 58)
(71 47 86)
(79 70 96)
(4 78 53)
(68 72 74)
(35 98 44)
(8 12 98)
(82 34 45)
(80 46 89)
(15 83 16)
(83 67 34)
(49 5 21)
(99 62 22)
(81 21 57)
(22 89 39)
(72 77 96)
(46 89 73)
(64 86 20)
(68 63 96)
(54 93 59)
(35 86 68)
(87 43 48)
(38 3 95)
(56 56 64)
(53 55 60)
(49 31 69)
(80 33 36)
(85 17 33)
(70 4 87)
(18 66 14)
(69 49 93)
(75 33 7)
(85 17 2)
(48 48 35)
(16 31 14)
(57 35 5)
(38 43 36)
(23 24 90)
(14 50 93)
(88 78 78)
(18 21 39)
(63 27 56)
(24 75 76)
(62 60 86)
(80 55 28)
(34 55 53)
(65 33 24)
(32 81 75)
(93 57 25)
(71 90 73)
(74 85 46)
(11 73 65)
(77 70 53)
(65 6 57)
(17 64 23)
(32 17 58)
(84 36 46)
(77 37 80)
(16 39 61)
(50 80 15)
(30 15 7)
(60 55 12)
(66 43 5)
(61 57 27)
(44 98 45)
(9 55 24)
(11 94 69)
(17 63 71)
(49 66 58)
(35 73 99)
(68 10 57)
(69 56 13)
(48 50 87)
(2 27 89)
(72 41 60)
(90 80 15)
(37 83 37)
(31 63 36)
(98 54 49)
(74 30 33)
(12 14 51)
(67 30 85)
(88 52 35)
(72 77 45)
(37 81 61)
(75 33 62)
(26 58 86)
(13 40 29)
(89 97 30)
(7 71 68)
(49 74 67)
(85 75 3)
(84 61 51)
(2 85 60)
(17 27 47)
(94 28 59)
(57 40 51)
(63 12 35)
(97 99 4)
(78 60 18)
(51 34 96)
(52 5 78)
(19 4 5)
(65 91 55)
(36 79 66)
(85 77 87)
(29 97 89)
(2 65 65)
(72 27 69)
(10 95 13)
(22 66 33)
(19 13 56)
(84 69 1)
(37 49 66)
(40 92 55)
(27 39 13)
(30 47 58)
(34 56 12)
(64 32 34)
(88 95 15)
(42 91 55)
(15 48 28)
(38 60 46)
(26 9 37)
(85 37 74)
(24 61 79)
(11 3 93)
(54 87 11)
(44 96 60)
(98 76 73)
(45 90 36)
(50 34 51)
(81 64 13)
(27 47 7)
(32 48 73)
(11 20 58)
(22 5 66)
(19 18 3)
(61 36 53)
(93 78 32)
(80 93 14)
(68 73 8)
(4 19 50)
(78 87 19)
(8 40 4)
(94 69 92)
(58 13 46)
(91 6 26)
(35 27 46)
(2 30 52)
(74 58 27)
(67 83 97)
(97 16 92)
(73 21 99)
(30 26 79)
(2 18 78)
(62 3 34)
(13 63 57)
(14 90 31)
(72 94 14)
(85 98 12)
(16 72 49)
(77 35 80)
(94 53 99)
(60 1 25)
(85 86 92)
(87 12 28)
(77 78 98)
(12 2 77)
(87 2 58)
(21 27 42)
(28 66 97)
(9 74 91)
(24 20 13)
(63 26 79)
(24 59 67)
(88 4 89)
(46 84 91)
(77 39 78)
(94 90 70)
(33 72 45)
(61 47 59)
(77 15 23)
(97 54 90)
(40 81 18)
(79 18 62)
(27 39 22)
(2 50 26)
(71 19 3)
(57 27 76)
(4 47 44)
(75 24 57)
(23 52 79)
(69 90 2)
(22 72 75)
(16 28 31)
(4 90 54)
(76 69 30)
(3 41 60)
(58 94 73)
(50 70 73)
(58 6 75)
(85 10 35)
(81 22 52)
(6 13 32)
(52 82 11)
(12 42 34)
(42 50 68)
(79 57 20)
(29 58 93)
(2 87 66)
(35 21 12)
(19 57 49)
(42 82 79)
(23 10 74)
(47 68 59)
(81 18 45)
(1 3 63)
(55 32 32)
(75 76 42)
(56 32 49)
(73 25 1)
(37 1 3)
(71 68 19)
(17 20 30)
(24 92 70)
(23 78 16)
(33 69 10)
(36 66 51)
(88 53 80)
(25 56 47)
(6 12 27)
(98 40 94)
(2 51 88)
(48 4 65)
(70 91 90)
(52 30 50)
(14 61 8)
(91 13 91)
(99 51 54)
(52 75 36)
(14 66 17)
(3 20 44)
(96 36 90)
(12 10 21)
(86 42 78)
(6 63 76)
(40 4 55)
(36 4 30)
(60 96 42)
(83 51 70)
(13 46 1)
(33 96 56)
(21 71 83)
(60 48 95)
(56 28 24)
(57 25 1)
(83 80 70)
(36 14 66)
(52 92 89)
(8 75 42)
(57 13 15)
(14 60 31)
(19 11 71)
(57 67 81)
(35 38 58)
(8 17 56)
(61 43 55)
(5 53 23)
(78 97 20)
(67 15 83)
(8 44 59)
(23 91 52)
(8 39 15)
(86 67 90)
(74 97 10)
(97 20 3)
(86 58 94)
(99 79 35)
(61 20 79)
(42 53 4)
(71 22 84)
(75 66 3)
(98 58 94)
(68 95 75)
(69 2 15)
(26 8 47)
(17 36 6)
(86 34 71)
(62 89 48)
(11 14 81)
(26 29 62)
(75 64 73)
(9 77 88)
(12 12 84)
(55 68 63)
(19 54 70)
(10 24 72)
(66 79 64)
(19 49 55)
(60 52 57)
(46 77 96)
(63 13 47)
(39 15 61)
(51 89 29)
(92 65 98)
(11 13 90)
(35 22 74)
(69 55 37)
(92 48 35)
(77 21 39)
(11 24 68)
(54 56 92)
(46 15 89)
(8 5 13)
(89 80 8)
(56 70 55)
(56 6 19)
(35 17 25)
(34 2 98)
(77 71 11)
(63 27 40)
(39 70 77)
(37 55 65)
(94 49 15)
(31 81 13)
(6 8 40)
(93 81 18)
(63 70 21)
(92 59 17)
(92 94 32)
(95 96 70)
(4 6 98)
(43 79 14)
(5 6 8)
(99 28 86)
(16 35 37)
(13 73 67)
(23 1 46)
(69 75 24)
(88 43 12)
(82 59 5)
(92 2 86)
(50 23 37)
(64 14 6)
(10 21 68)
(68 38 25)
(70 68 7)
(63 50 22)
(17 10 51)
(15 46 68)
(60 5 4)
(64 70 62)
(67 95 56)
(4 53 4)
(57 51 76)
(78 34 72)
(37 70 79)
(85 86 58)
(65 21 31)
(94 46 30)
(92 18 64)
(4 93 99)
(29 91 44)
(1 32 33)
(40 43 27)
(44 19 69)
(2 97 67)
(11 48 81)
(89 34 5)
(4 59 41)
(59 13 36)
(39 22 6)
(94 64 55)
(36 25 79)
(48 76 77)
(65 64 92)
(22 78 64)
(47 54 13)
(52 6 30)
(70 60 71)
(85 69 70)
(39 74 22)
(11 42 29)
(87 80 73)
(80 81 1)
(32 47 34)
(73 3 57)
(65 41 87)
(6 11 88)
(79 95 46)
(33 29 61)
(10 20 62)
(57 49 46)
(85 37 79)
(50 77 99)
(67 18 78)
(50 43 79)
(52 71 42)
(25 22 11)
(10 22 15)
(94 60 32)
(80 13 12)
(61 74 74)
(88 30 28)
(35 44 2)
(62 19 77)
(33 50 89)
(78 98 5)
(6 54 43)
(61 6 27)
(73 77 99)
(97 35 36)
(57 62 45)
(62 91 26)
(9 66 73)
(12 75 91)
(35 56 53)
(46 90 43)
(29 96 14)
(86 95 82)
(11 74 7)
(7 67 84)
(19 79 84)
(48 99 1)
(98 46 38)
(14 77 26)
(93 70 66)
(62 24 11)
(43 54 17)
(8 99 75)
(75 11 86)
(61 95 23)
(83 33 96)
(11 7 37)
(65 15 98)
(70 5 51)
(19 49 8)
(57 80 98)
(96 94 30)
(51 23 53)
(15 41 75)
(89 45 38)
(73 34 92)
(76 21 88)
(13 99 69)
(76 43 97)
(89 49 49)
(66 37 27)
(3 37 94)
(78 98 34)
(47 26 86)
(52 79 54)
(83 44 45)
(63 39 38)
(12 3 48)
(32 81 71)
(32 97 77)
(31 36 67)
(84 59 52)
(66 34 18)
(24 43 72)
(43 70 30)
(82 19 10)
(87 79 47)
(68 61 76)
(88 8 7)
(59 63 46)
(55 10 61)
(87 47 33)
(49 59 26)
(91 1 45)
(21 12 85)
(30 23 3)
(84 47 21)
(12 62 45)
(27 18 23)
(6 72 69)
(22 43 73)
(30 62 50)
(5 40 58)
(15 84 58)
(25 45 84)
(5 98 82)
(48 96 19)
(23 7 89)
(42 68 70)
(71 91 24)
(34 63 9)
(81 20 11)
(59 49 71)
(59 62 15)
(67 5 11)
(57 12 63)
(26 28 57)
(17 61 41)
(14 42 89)
(87 51 12)