/*--------------------------------*- C++ -*----------------------------------*
  =========                 |
  \\      /  F ield         | OpenFOAM: The Open Source CFD Toolbox
   \\    /   O peration     | Website:  https://openfoam.org
    \\  /    A nd           | Version:  dev
     \\/     M anipulation  |
\*---------------------------------------------------------------------------*/
FoamFile
{
    version     2.0;
    format      ascii;
    class       vectorField;
    location    "constant";
    object      positions;
}
// * * * * * * * * * * * * * * * * * * * * * * * * * * * * * * * * * * * * * //
729
(
(36 91 42)
(85 13 31)
(65 33 62)
(32 88 23)
(76 4 74)
(90 91 51)
(43 29 94)
(69 13 60)
(35 27 28)
(25 24 24)
(58 42 98)
(37 2 86)
(60 67 92)
(69 21 32)
(87 15 87)
(94 63 11)
(7 37 81)
(56 58 85)
(25 63 42)
(28 78 36)
(91 76 5)
(3 43 62)
(3 27 32)
(73 77 25)
(64 92 29)
(71 15 50)
(26 94 37)
(86 23 53)
(84 70 9)
(4 86 30)
(50 31 93)
(70 87 17)
(10 76 87)
(75 22 57)
(47 86 25)
(86 56 5)
(94 52 25)
(86 17 34)
(34 68 74)
(94 79 56)
(99 48 11)
(84 84 68)
(37 31 48)
(93 58 84)
(84 12 41)
(96 9 31)
(45 70 13)
(68 40 12)
(17 29 12)
(79 38 90)
(91 56 12)
(11 29 48)
(80 23 76)
(32 90 8)
(21 86 92)
(92 42 38)
(18 93 7)
(82 90 38)
(6 90 68)
(53 45 26)
(2 34 27)
(18 1 58)
(53 68 52)
(2 73 85)
(65 5 84)
(27 37 21)
(56 93 31)
(28 14 23)
(49 88 56)
(59 71 18)
(85 76 84)
(21 10 32)
(30 6 44)
(5 17 65)
(47 27 60)
(97 38 94)
(55 59 45)
(79 86 23)
(70 25 20)
(10 39 71)
(72 20 26)
(45 58 72)
(33 64 92)
(83 24 65)
(25 46 47)
(19 1 89)
(87 2 18)
(53 85 40)
(9 82 60)
(79 24 81)
(89 35 4)
(49 28 88)
(79 80 25)
(46 70 36)
(53 62 55)
(43 30 80)
(97 73 39)
(50 67 15)
(88 61 51)
(73 7 39)
(26 36 1)
(85 35 71)
(34 3 67)
(71 59 26)
(56 61 75)
(42 74 79)
(53 12 15)
(75 21 95)
(77 91 51)
(63 35 13)
(53 68 93)
(72 99 14)
(55 18 56)
(29 19 62)
(41 78 95)
(14 85 67)
(2 34 69)
(29 68 52)
(37 32 53)
(68 21 76)
(68 49 26)
(99 61 60)
(50 60 38)
(18 2 5)
(63 80 45)
(38 30 8)
(25 71 42)
(40 94 21)
(29 79 77)
(81 75 8)
(49 40 50)
(75 73 20)
(82 80 31)
(27 93 47)
(41 91 8)
(89 10 71)
(51 86 82)
(45 94 11)
(4 93 29)
(14 12 8)
(18 86 34)
(55 35 97)
(51 85 42)
(95 40 7)
(56 92 41)
(47 17 72)
(21 44 74)
(38 43 62)
(64 55 58)
(47 16 75)
(98 66 60)
(59 61 75)
(55 15 47)
(21 93 69)
(30 71 68)
(57 43 33)
(81 80 11)
(60 29 13)
(76 89 64)
(58 44 1)
(82 46 93)
(62 63 71)
(4 51 39)
(12 56 13)
(58 55 4)
(8 19 66)
(19 8 14)
(14 72 4)
(22 64 10)
(59 7 37)
(4 31 67)
(65 93 98)
(85 28 10)
(21 58 94)
(92 48 33)
(48 72 15)
(63 47 32)
(50 69 96)
(94 55 33)
(22 76 86)
(4 7 62)
(59 79 55)
(33 37 28)
(6 59 34)
(86 48 76)
(18 51 43)
(43 26 9)
(17 78 48)
(36 26 64)
(36 67 10)
(94 45 46)
(82 25 65)
(3 20 60)
(20 21 62)
(94 2 7)
(88 74 99)
(49 80 76)
(84 22 50)
(85 41 39)
(60 56 81)
(36 42 32)
(69 73 73)
(83 69 90)
(69 75 74)
(30 54 17)
(21 88 85)
(67 88 92)
(9 42 56)
(95 73 75)
(62 46 98)
(59 61 39)
(97 87 90)
(21 59 93)
(78 73 46)
(90 33 8)
(38 75 25)
(54 83 83)
(69 69 37)
(87 86 46)
(27 65 5)
(92 48 50)
(97 6 19)
(58 52 28)
(14 94 11)
(21 69 1)
(42 85 37)
(92 31 7)
(97 51 87)
(35 39 10)
(14 18 33)
(51 50 68)
(50 86 40)
(23 76 78)
(62 7 61)
(28 95 57)
(67 62 82)
(39 62 32)
(25 43 70)
(50 1 8)
(43 80 42)
(61 70 31)
(79 60 21)
(82 30 86)
(37 45 29)
(41 38 86)
(24 66 63)
(14 27 68)
(67 19 63)
(12 3 64)
(5 18 73)
(80 47 97)
(97 27 7)
(64 49 35)
(58 10 74)
(68 87 36)
(26 23 74)
(57 12 12)
(35 73 53)
(62 54 53)
(56 4 62)
(79 85 60)
(4 72 55)
(63 60 32)
(2 97 91)
(22 7 23)
(37 79 61)
(52 39 35)
(37 82 54)
(43 56 33)
(87 77 14)
(28 39 85)
(71 83 94)
(92 97 84)
(98 95 38)
(66 5 44)
(52 27 65)
(21 60 54)
(95 68 25)
(3 5 19)
(8 78 58)
(50 18 75)
(52 93 23)
(82 74 5)
(11 2 24)
(85 69 14)
(29 30 29)
(10 56 28)
(78 5 3)
(11 44 56)
(32 66 44)
(46 88 97)
(29 80 25)
(76 66 83)
(3 82 19)
(20 32 86)
(61 91 89)
(7 72 16)
(21 37 65)
(28 41 94)
(62 88 45)
(85 15 79)
(18 42 69)
(11 19 5)
(30 25 82)
(89 66 54)
(69 48 42)
(11 19 34)
(77 80 14)
(17 33 85)
(3 64 97)
(66 48 37)
(32 11 50)
(25 64 26)
(61 17 64)
(10 12 26)
(41 13 85)
(58 63 66)
(20 28 88)
(24 67 59)
(4 39 17)
(15 4 15)
(12 15 49)
(34 73 36)
(49 96 28)
(89 17 63)
(35 35 71)
(96 21 21)
(63 42 99)
(21 67 66)
(58 18 53)
(79 15 15)
(40 62 54)
(12 57 44)
(46 21 71)
(55 5 75)
(29 25 55)
(61 28 28)
(40 66 6)
(59 59 11)
(21 31 36)
(8 57 43)
(51 20 78)
(97 91 95)
(88 35 18)
(21 50 65)
(14 71 61)
(92 29 2)
(37 69 68)
(76 84 96)
(25 7 45)
(93 66 53)
(89 73 17)
(55 83 36)
(16 84 41)
(81 57 82)
(49 83 35)
(22 53 10)
(39 7 2)
(92 83 37)
(17 81 16)
(7 43 80)
(75 3 68)
(76 91 11)
(58 98 46)
(23 42 36)
(9 8 79)
(44 46 65)
(3 14 56)
(62 9 99)
(78 92 81)
(15 25 82)
(90 59 41)
(2 98 48)
(54 46 92)
(11 99 31)
(68 25 39)
(46 85 86)
(20 81 74)
(43 27 88)
(26 99 34)
(67 35 27)
(87 82 95)
(79 25 5)
(48 32 57)
(64 36 87)
(84 75 71)
(4 24 30)
(10 84 78)
(77 36 14)
(30 13 51)
(81 75 47)
(62 53 24)
(90 63 22)
(32 65 57)
(34 65 30)
(24 4 4)
(82 52 36)
(53 45 73)
(16 48 49)
(58 87 31)
(11 97 85)
(94 1 44)
(46 82 41)
(76 31 21)
(33 86 1)
(31 87 44)
(47 27 64)
(98 18 73)
(60 44 18)
(61 5 16)
(33 53 31)
(78 21 23)
(13 80 93)
(66 60 89)
(87 39 35)
(27 5 19)
(68 80 36)
(95 83 9)
(76 23 69)
(80 78 11)
(73 14 77)
(21 53 10)
(54 36 47)
(43 36 28)
(61 31 66)
(99 96 84)
(62 9 86)
(30 78 21)
(15 86 50)
(72 80 71)
(47 29 40)
(65 36 27)
(56 62 91)
(77 81 1)
(67 34 79)
(56 57 6)
(53 91 31)
(70 77 97)
(57 34 76)
(29 26 18)
(86 70 35)
(91 49 11)
(77 53 25)
(36 77 19)
(25 85 30)
(63 4 3)
(58 32 57)
(74 7 43)
(27 34 67)
(39 64 59)
(52 12 45)
(43 67 12)
(2 30 51)
(5 13 95)
(63 2 22)
(84 44 2)
(24 2 30)
(93 41 81)
(87 76 44)
(4 32 15)
(96 92 45)
(42 72 9)
(3 27 18)
(86 57 40)
(55 76 54)
(19 58 54)
(68 14 40)
(5 11 11)
(72 85 93)
(42 82 26)
(51 70 30)
(53 43 45)
(61 59 86)
(26 34 4)
(73 62 63)
(75 50 83)
(56 86 45)
(26 59 61)
(4 14 38)
(98 7 30)
(82 28 37)
(84 49 5)
(97 26 29)
(40 12 2)
(9 64 32)
(79 46 5)
(86 34 95)
(47 32 6)
(89 18 90)
(12 37 12)
(11 77 31)
(80 31 91)
(18 30 54)
(81 49 37)
(44 22 20)
(46 41 22)
(17 22 68)
(71 26 41)
(96 5 14)
(89 97 26)
(40 13 26)
(8 30 93)
(72 80 36)
(10 40 52)
(84 29 28)
(10 17 47)
(28 23 94)
(80 68 12)
(57 68 99)
(38 92 44)
(12 75 52)
(32 82 66)
(56 65 83)
(93 39 13)
(32 87 20)
(92 76 21)
(68 85 66)
(56 56 56)
(52 88 94)
(93 34 28)
(68 32 12)
(78 15 12)
(15 78 79)
(26 42 63)
(75 96 87)
(18 49 53)
(91 5 35)
(17 31 31)
(52 61 95)
(95 25 25)
(44 57 11)
(90 57 18)
(2 82 13)
(9 88 87)
(70 77 90)
(2 15 30)
(93 19 61)
(64 11 2)
(33 70 58)
(82 89 37)
(25 92 84)
(58 70 12)
(69 62 15)
(72 26 35)
(78 56 18)
(11 65 97)
(34 92 53)
(36 18 32)
(17 88 60)
(24 70 43)
(57 22 25)
(16 70 23)
(92 97 9)
(41 29 54)
(89 33 76)
(98 59 66)
(55 79 22)
(13 25 62)
(80 54 28)
(50 77 99)
(16 27 1)
(1 76 52)
(12 62 95)
(23 38 52)
(74 45 12)
(99 64 70)
(88 16 65)
(60 23 27)
(38 6 90)
(58 61 46)
(2 67 26)
(39 67 8)
(37 28 92)
(63 86 59)
(71 59 56)
(10 41 97)
(13 88 88)
(42 72 35)
(50 91 7)
(13 93 65)
(26 1 25)
(83 67 79)
(90 51 51)
(39 3 69)
(99 68 26)
(92 94 19)
(47 57 99)
(8 48 96)
(22 8 83)
(94 87 75)
(64 92 28)
(21 8 31)
(20 46 90)
(32 52 14)
(72 48 21)
(95 43 87)
(29 75 85)
(27 18 62)
(33 47 5)
(57 36 74)
(56 7 33)
(8 34 91)
(2 33 77)
(79 65 75)
(91 42 70)
(19 75 10)
(84 29 56)
(30 35 78)
(78 70 58)
(89 88 55)
(43 1 59)
(23 67 29)
(18 77 90)
(50 18 70)
(42 67 12)
(13 51 11)
(46 93 99)
(37 96 37)
(36 30 78)
(14 45 60)
(96 70 86)
(83 52 10)
(62 40 66)
(65 58 76)
(65 74 97)
(95 34 2)
(59 19 61)
(48 50 44)
(58 97 42)
(74 99 47)
(60 93 41)
(15 53 65)
(94 68 17)
(48 15 6)
(83 38 77)
(63 54 81)
(50 20 65)
(34 10 9)
(56 56 52)
(92 51 99)
(31 9 32)
(71 17 34)
(54 34 52)
(79 26 90)
(99 52 1)
(89 91 77)
(93 6 63)
(21 8 60)
(40 69 98)
(17 5 18)
(48 89 42)
(4 14 85)
(23 81 91)
(70 94 21)
(19 16 74)
(57 20 1)
(26 29 75)
(9 26 38)
(42 24 66)
(43 3 53)
(3 91 83)
(48 43 93)
(24 26 28)
(32 34 49)
(29 78 34)
(18 56 78)
(9 55 66)
(43 99 45)
(68 48 62)
(27 49 39)
(87 54 67)
(5 70 13)
(46 61 70)
(78 99 74)
(1 84 84)
(65 24 70)
(40 75 12)
(44 3 26)
(58 38 78)
(48 82 28)
(90 80 59)
(94 57 40)
(74 1 65)
(46 21 27)
(28 72 21)
(22 11 10)
(62 42 21)
(11 13 59)
(26 25 91)
(2 44 89)
(71 36 72)
(18 18 16)
(3 50 29)
(5 75 31)
(36 27 14)
(69 14 50)
(19 61 75)
(78 29 45)
(65 23 4)
(53 62 22)
(32 43 27)
(64 13 87)
(35 30 34)
(6 37 59)
(2 80 57)
(85 29 62)
(7 19 75)
(46 56 89)
(97 84 45)
(84 77 26)
(16 88 81)
(71 60 13)
(16 53 79)
(18 49 22)
(46 13 3)
(27 1 82)
(36 55 12)
(97 66 47)
(93 75 73)
(31 42 17)
(51 82 9)
(89 54 60)
(35 12 45)
(44 3 55)
(14 48 52)
(76 40 7)
(77 69 64)
(15 42 67)
(49 6 34)
)