/*--------------------------------*- C++ -*----------------------------------*
  =========                 |
  \\      /  F ield         | OpenFOAM: The Open Source CFD Toolbox
   \\    /   O peration     | Website:  https://openfoam.org
    \\  /    A nd           | Version:  dev
     \\/     M anipulation  |
\*---------------------------------------------------------------------------*/
FoamFile
{
    version     2.0;
    format      ascii;
    class       vectorField;
    location    "constant";
    object      positions;
}
// * * * * * * * * * * * * * * * * * * * * * * * * * * * * * * * * * * * * * //
729
(
(560 12 824)
(769 681 307)
(831 517 800)
(635 600 183)
(267 181 21)
(726 692 103)
(658 296 874)
(31 827 397)
(451 247 384)
(738 706 579)
(698 423 114)
(478 135 951)
(44 570 177)
(115 428 523)
(405 604 47)
(313 953 265)
(850 5 977)
(516 112 243)
(716 577 643)
(409 834 801)
(940 562 511)
(510 159 239)
(531 806 691)
(469 650 852)
(304 151 455)
(723 764 603)
(917 592 306)
(994 68 55)
(657 449 549)
(78 962 283)
(976 409 384)
(315 814 942)
(620 10 293)
(483 840 824)
(340 948 432)
(861 166 762)
(50 552 931)
(592 348 683)
(700 530 613)
(582 246 146)
(935 650 648)
(43 1 806)
(7 356 929)
(703 507 885)
(498 22 932)
(183 540 811)
(753 742 383)
(168 25 885)
(481 984 696)
(691 415 271)
(156 495 862)
(61 978 384)
(268 666 400)
(2 382 349)
(928 534 986)
(204 378 174)
(364 153 655)
(953 271 488)
(635 930 9)
(351 269 824)
(816 654 297)
(264 928 722)
(90 750 695)
(154 955 154)
(661 262 528)
(934 21 892)
(457 649 108)
(738 657 717)
(427 252 852)
(112 654 700)
(155 424 87)
(854 713 703)
(459 908 971)
(120 533 24)
(973 479 209)
(429 312 480)
(266 15 983)
(562 302 88)
(423 787 437)
(574 992 536)
(538 86 47)
(431 743 415)
(799 804 128)
(784 365 532)
(84 607 761)
(254 86 953)
(38 535 394)
(1 684 335)
(324 721 760)
(821 714 388)
(241 960 498)
(252 886 463)
(934 210 305)
(660 782 792)
(691 334 382)
(65 380 578)
(289 417 443)
(853 535 527)
(859 676 262)
(359 763 273)
(880 82 238)
(79 312 429)
(743 110 458)
(842 250 369)
(426 249 272)
(419 616 227)
(606 69 523)
(683 420 437)
(182 747 23)
(824 713 57)
(30 954 914)
(411 486 770)
(858 948 875)
(750 603 910)
(949 802 301)
(969 859 40)
(968 13 102)
(690 804 553)
(665 421 364)
(625 20 793)
(682 921 687)
(652 3 552)
(469 288 98)
(541 976 911)
(20 43 109)
(324 190 563)
(46 405 525)
(443 622 962)
(128 811 974)
(69 37 303)
(769 229 533)
(328 673 501)
(372 677 351)
(747 670 8)
(270 123 933)
(119 724 301)
(555 848 592)
(133 472 45)
(238 457 502)
(786 790 604)
(242 606 365)
(967 410 957)
(394 698 469)
(494 700 552)
(792 959 837)
(503 244 516)
(163 675 639)
(591 819 178)
(268 280 749)
(630 111 979)
(482 594 424)
(249 933 529)
(61 380 411)
(510 138 621)
(360 260 204)
(551 91 212)
(256 286 552)
(454 639 781)
(432 55 893)
(652 274 205)
(936 716 692)
(754 130 17)
(963 932 508)
(368 339 724)
(273 455 720)
(22 554 122)
(133 969 232)
(202 612 897)
(891 241 332)
(397 726 144)
(504 982 473)
(105 469 85)
(476 436 844)
(842 703 957)
(575 367 656)
(347 559 286)
(749 142 301)
(519 986 570)
(870 816 200)
(63 700 246)
(632 914 676)
(424 620 682)
(868 363 660)
(508 643 948)
(194 37 340)
(288 491 339)
(389 205 726)
(262 226 281)
(424 113 233)
(771 922 942)
(504 852 797)
(908 319 418)
(777 760 525)
(413 996 936)
(462 969 587)
(655 82 334)
(956 116 378)
(988 859 483)
(124 466 188)
(195 927 944)
(531 603 119)
(219 80 839)
(334 587 595)
(740 429 539)
(375 100 164)
(848 965 324)
(535 784 63)
(243 941 523)
(4 168 210)
(430 309 37)
(904 324 37)
(755 352 352)
(195 176 730)
(796 654 998)
(18 239 962)
(415 505 503)
(353 653 105)
(952 86 937)
(531 31 227)
(34 646 68)
(679 342 148)
(798 332 637)
(958 832 884)
(301 600 868)
(881 781 843)
(455 258 343)
(438 552 875)
(327 367 42)
(901 995 269)
(704 304 963)
(227 951 481)
(459 5 117)
(492 62 986)
(379 346 547)
(428 541 492)
(522 686 554)
(648 179 822)
(62 13 660)
(802 124 623)
(717 293 422)
(872 804 152)
(300 892 457)
(713 456 823)
(686 106 337)
(477 500 267)
(16 498 251)
(311 734 742)
(248 448 787)
(917 786 687)
(384 920 980)
(447 72 85)
(267 291 351)
(79 276 808)
(350 147 724)
(419 711 55)
(670 526 740)
(426 40 594)
(290 292 468)
(207 20 737)
(727 224 679)
(911 276 948)
(236 90 133)
(386 429 320)
(419 880 379)
(771 512 249)
(224 641 33)
(739 857 381)
(266 364 992)
(971 979 585)
(43 41 752)
(914 154 596)
(429 846 525)
(623 255 53)
(714 269 45)
(589 186 396)
(290 518 451)
(98 86 604)
(928 341 459)
(333 751 506)
(572 203 198)
(108 908 497)
(815 862 426)
(401 202 984)
(581 391 351)
(137 456 942)
(904 348 469)
(961 473 920)
(833 245 385)
(392 926 90)
(729 912 140)
(336 690 291)
(532 852 145)
(769 44 362)
(557 181 503)
(904 42 941)
(366 720 535)
(776 825 516)
(383 442 399)
(861 978 540)
(585 509 679)
(535 822 122)
(49 45 519)
(266 127 420)
(461 394 523)
(656 143 73)
(476 979 123)
(300 795 856)
(103 58 861)
(385 689 335)
(270 804 103)
(843 520 69)
(266 928 59)
(682 695 270)
(766 528 947)
(684 10 373)
(327 658 49)
(847 264 510)
(356 119 132)
(602 995 331)
(299 405 457)
(19 774 728)
(259 700 310)
(363 446 70)
(122 867 823)
(165 101 347)
(944 934 944)
(484 188 647)
(146 428 101)
(546 723 755)
(73 78 402)
(786 72 318)
(753 117 435)
(228 694 523)
(687 86 155)
(243 56 997)
(643 513 345)
(681 249 708)
(62 139 749)
(499 95 533)
(245 680 905)
(793 786 994)
(486 933 652)
(921 903 950)
(894 499 773)
(935 231 701)
(479 20 143)
(60 964 125)
(959 684 705)
(762 817 62)
(991 961 629)
(738 863 365)
(227 218 906)
(642 554 327)
(576 123 618)
(824 628 306)
(652 534 725)
(602 541 579)
(395 903 282)
(880 557 663)
(307 192 348)
(234 124 45)
(198 425 957)
(649 645 359)
(338 934 447)
(941 49 717)
(612 636 954)
(437 5 838)
(290 374 77)
(907 266 925)
(1 37 609)
(421 40 716)
(44 595 432)
(819 822 96)
(866 428 254)
(108 333 482)
(503 167 558)
(169 853 103)
(935 566 221)
(529 976 835)
(753 970 418)
(193 308 371)
(306 695 369)
(927 409 559)
(974 847 127)
(587 545 970)
(327 961 165)
(779 306 460)
(681 909 531)
(394 344 363)
(802 245 259)
(158 601 903)
(825 649 636)
(310 459 598)
(595 580 387)
(412 397 363)
(235 515 767)
(130 395 132)
(198 275 73)
(349 542 695)
(868 320 597)
(296 941 660)
(362 490 121)
(422 218 542)
(386 497 579)
(686 878 597)
(983 523 772)
(13 507 213)
(542 920 749)
(296 474 735)
(734 477 908)
(660 301 77)
(276 506 539)
(826 510 698)
(280 44 638)
(339 217 249)
(455 497 216)
(295 339 608)
(742 985 78)
(14 961 113)
(803 31 656)
(446 573 694)
(86 105 722)
(446 748 296)
(235 192 179)
(177 687 643)
(371 326 428)
(659 262 986)
(273 706 897)
(552 785 37)
(63 76 693)
(202 218 233)
(562 632 625)
(543 946 100)
(906 685 998)
(754 549 939)
(435 121 340)
(538 789 848)
(369 625 744)
(686 314 397)
(568 85 659)
(208 429 224)
(114 418 120)
(89 760 843)
(52 106 871)
(610 119 507)
(515 626 545)
(260 101 537)
(364 37 679)
(818 301 151)
(604 685 653)
(375 433 334)
(442 122 361)
(289 457 199)
(672 910 846)
(630 983 980)
(444 257 478)
(339 187 546)
(789 691 112)
(867 685 228)
(328 360 728)
(481 309 10)
(995 705 497)
(606 224 970)
(574 480 804)
(316 751 972)
(890 327 569)
(525 403 720)
(760 230 600)
(306 257 298)
(396 669 82)
(15 781 917)
(568 301 225)
(390 423 927)
(911 174 239)
(601 331 976)
(541 940 141)
(664 556 923)
(910 899 182)
(889 848 269)
(707 233 713)
(945 840 837)
(796 412 737)
(247 601 328)
(984 340 460)
(849 774 40)
(706 920 426)
(420 165 979)
(940 63 492)
(232 181 994)
(123 827 223)
(848 975 60)
(973 784 750)
(428 83 150)
(386 413 610)
(604 715 839)
(87 517 810)
(134 600 142)
(466 288 421)
(587 4 181)
(334 825 408)
(251 950 662)
(748 827 243)
(414 846 514)
(392 72 262)
(545 883 92)
(4 823 889)
(705 802 909)
(982 652 192)
(997 781 594)
(876 247 136)
(562 423 413)
(944 566 831)
(293 981 527)
(672 444 848)
(904 588 93)
(61 871 589)
(693 844 226)
(151 864 415)
(140 92 777)
(164 716 59)
(509 221 430)
(868 308 76)
(743 11 283)
(870 814 251)
(822 776 87)
(454 646 620)
(712 531 882)
(360 380 196)
(954 462 248)
(405 947 559)
(170 966 516)
(699 930 505)
(974 622 105)
(602 935 488)
(328 199 637)
(517 845 459)
(193 900 340)
(756 104 33)
(887 901 549)
(532 347 452)
(290 964 897)
(147 521 159)
(893 886 485)
(963 926 44)
(943 655 470)
(768 17 122)
(308 370 490)
(829 546 254)
(544 536 86)
(201 355 930)
(148 503 738)
(658 336 256)
(873 951 532)
(989 976 54)
(817 556 448)
(742 315 175)
(633 491 800)
(741 942 957)
(333 963 644)
(630 98 892)
(22 394 399)
(633 399 944)
(178 822 973)
(992 357 487)
(279 612 601)
(52 344 99)
(766 339 719)
(394 765 572)
(963 758 485)
(556 257 460)
(604 304 98)
(499 178 313)
(354 871 179)
(710 520 510)
(754 705 743)
(382 447 387)
(56 533 987)
(882 678 624)
(561 472 214)
(782 617 650)
(478 437 965)
(281 825 594)
(361 712 681)
(956 29 8)
(416 841 976)
(195 702 609)
(220 964 975)
(999 120 448)
(463 770 608)
(975 312 134)
(68 823 674)
(376 14 689)
(674 523 432)
(399 505 921)
(471 546 599)
(810 35 387)
(499 561 157)
(210 520 142)
(444 831 606)
(639 540 43)
(174 758 587)
(762 10 244)
(666 539 549)
(783 38 557)
(155 416 217)
(161 194 874)
(419 84 214)
(845 689 755)
(334 635 513)
(97 225 973)
(24 220 386)
(334 735 602)
(658 748 799)
(927 195 586)
(671 208 220)
(170 588 875)
(945 373 461)
(642 789 570)
(123 2 318)
(684 30 129)
(88 239 936)
(104 869 74)
(123 846 539)
(321 241 668)
(210 573 691)
(222 912 961)
(387 870 544)
(322 551 250)
(941 74 882)
(475 104 730)
(860 476 528)
(545 283 639)
(859 100 461)
(126 153 890)
(912 299 960)
(468 781 25)
(770 215 220)
(650 490 197)
(729 837 130)
(544 112 970)
(427 482 455)
(507 28 484)
(903 886 145)
(539 1 253)
(546 414 98)
(79 825 302)
(365 164 510)
(278 197 463)
(596 589 881)
(611 426 135)
(557 492 471)
(977 159 796)
(97 465 674)
(303 448 457)
(294 991 870)
(93 879 924)
(162 557 202)
(788 890 409)
(621 650 861)
(62 661 634)
(576 868 738)
(663 464 599)
(662 193 360)
(298 193 537)
(537 636 833)
(1 744 914)
(452 895 200)
(52 359 426)
(587 997 692)
(878 320 6)
(760 247 957)
(962 110 388)
(917 990 330)
(651 678 722)
(677 868 947)
(641 422 151)
(847 424 212)
(109 645 685)
(339 91 582)
(873 510 310)
(813 148 534)
(196 88 914)
(486 711 415)
(861 277 751)
(856 680 516)
(34 206 921)
(447 776 189)
(641 33 599)
(647 776 200)
(854 929 714)
(880 997 530)
(464 406 116)
(584 181 742)
(888 808 765)
(312 825 552)
(303 363 293)
(734 208 605)
(993 910 221)
(270 105 80)
(325 862 741)
(824 87 304)
(990 744 632)
(810 247 457)
(445 820 142)
(961 916 778)
(59 950 717)
(597 798 409)
(261 760 292)
(961 271 822)
(449 901 392)
(790 981 325)
(202 284 131)
(834 172 919)
(127 360 305)
(286 306 73)
(775 478 540)
(735 875 321)
(121 30 242)
(413 798 191)
(161 549 655)
(704 420 613)
(568 727 769)
(897 788 167)
(601 820 494)
(914 513 757)
(799 510 451)
(770 155 17)
(716 53 426)
(789 564 37)
)