/*--------------------------------*- C++ -*----------------------------------*
  =========                 |
  \\      /  F ield         | OpenFOAM: The Open Source CFD Toolbox
   \\    /   O peration     | Website:  https://openfoam.org
    \\  /    A nd           | Version:  dev
     \\/     M anipulation  |
\*---------------------------------------------------------------------------*/
FoamFile
{
    version     2.0;
    format      ascii;
    class       vectorField;
    location    "constant";
    object      positions;
}
// * * * * * * * * * * * * * * * * * * * * * * * * * * * * * * * * * * * * * //
6859
(
(-0.009000000000000001 0.001 -0.009000000000000001)
(-0.009000000000000001 0.001 -0.008)
(-0.009000000000000001 0.001 -0.007)
(-0.009000000000000001 0.001 -0.006)
(-0.009000000000000001 0.001 -0.005)
(-0.009000000000000001 0.001 -0.004)
(-0.009000000000000001 0.001 -0.003)
(-0.009000000000000001 0.001 -0.002)
(-0.009000000000000001 0.001 -0.001)
(-0.009000000000000001 0.001 0.0)
(-0.009000000000000001 0.001 0.001)
(-0.009000000000000001 0.001 0.002)
(-0.009000000000000001 0.001 0.003)
(-0.009000000000000001 0.001 0.004)
(-0.009000000000000001 0.001 0.005)
(-0.009000000000000001 0.001 0.006)
(-0.009000000000000001 0.001 0.007)
(-0.009000000000000001 0.001 0.008)
(-0.009000000000000001 0.001 0.009000000000000001)
(-0.009000000000000001 0.002 -0.009000000000000001)
(-0.009000000000000001 0.002 -0.008)
(-0.009000000000000001 0.002 -0.007)
(-0.009000000000000001 0.002 -0.006)
(-0.009000000000000001 0.002 -0.005)
(-0.009000000000000001 0.002 -0.004)
(-0.009000000000000001 0.002 -0.003)
(-0.009000000000000001 0.002 -0.002)
(-0.009000000000000001 0.002 -0.001)
(-0.009000000000000001 0.002 0.0)
(-0.009000000000000001 0.002 0.001)
(-0.009000000000000001 0.002 0.002)
(-0.009000000000000001 0.002 0.003)
(-0.009000000000000001 0.002 0.004)
(-0.009000000000000001 0.002 0.005)
(-0.009000000000000001 0.002 0.006)
(-0.009000000000000001 0.002 0.007)
(-0.009000000000000001 0.002 0.008)
(-0.009000000000000001 0.002 0.009000000000000001)
(-0.009000000000000001 0.003 -0.009000000000000001)
(-0.009000000000000001 0.003 -0.008)
(-0.009000000000000001 0.003 -0.007)
(-0.009000000000000001 0.003 -0.006)
(-0.009000000000000001 0.003 -0.005)
(-0.009000000000000001 0.003 -0.004)
(-0.009000000000000001 0.003 -0.003)
(-0.009000000000000001 0.003 -0.002)
(-0.009000000000000001 0.003 -0.001)
(-0.009000000000000001 0.003 0.0)
(-0.009000000000000001 0.003 0.001)
(-0.009000000000000001 0.003 0.002)
(-0.009000000000000001 0.003 0.003)
(-0.009000000000000001 0.003 0.004)
(-0.009000000000000001 0.003 0.005)
(-0.009000000000000001 0.003 0.006)
(-0.009000000000000001 0.003 0.007)
(-0.009000000000000001 0.003 0.008)
(-0.009000000000000001 0.003 0.009000000000000001)
(-0.009000000000000001 0.004 -0.009000000000000001)
(-0.009000000000000001 0.004 -0.008)
(-0.009000000000000001 0.004 -0.007)
(-0.009000000000000001 0.004 -0.006)
(-0.009000000000000001 0.004 -0.005)
(-0.009000000000000001 0.004 -0.004)
(-0.009000000000000001 0.004 -0.003)
(-0.009000000000000001 0.004 -0.002)
(-0.009000000000000001 0.004 -0.001)
(-0.009000000000000001 0.004 0.0)
(-0.009000000000000001 0.004 0.001)
(-0.009000000000000001 0.004 0.002)
(-0.009000000000000001 0.004 0.003)
(-0.009000000000000001 0.004 0.004)
(-0.009000000000000001 0.004 0.005)
(-0.009000000000000001 0.004 0.006)
(-0.009000000000000001 0.004 0.007)
(-0.009000000000000001 0.004 0.008)
(-0.009000000000000001 0.004 0.009000000000000001)
(-0.009000000000000001 0.005 -0.009000000000000001)
(-0.009000000000000001 0.005 -0.008)
(-0.009000000000000001 0.005 -0.007)
(-0.009000000000000001 0.005 -0.006)
(-0.009000000000000001 0.005 -0.005)
(-0.009000000000000001 0.005 -0.004)
(-0.009000000000000001 0.005 -0.003)
(-0.009000000000000001 0.005 -0.002)
(-0.009000000000000001 0.005 -0.001)
(-0.009000000000000001 0.005 0.0)
(-0.009000000000000001 0.005 0.001)
(-0.009000000000000001 0.005 0.002)
(-0.009000000000000001 0.005 0.003)
(-0.009000000000000001 0.005 0.004)
(-0.009000000000000001 0.005 0.005)
(-0.009000000000000001 0.005 0.006)
(-0.009000000000000001 0.005 0.007)
(-0.009000000000000001 0.005 0.008)
(-0.009000000000000001 0.005 0.009000000000000001)
(-0.009000000000000001 0.006 -0.009000000000000001)
(-0.009000000000000001 0.006 -0.008)
(-0.009000000000000001 0.006 -0.007)
(-0.009000000000000001 0.006 -0.006)
(-0.009000000000000001 0.006 -0.005)
(-0.009000000000000001 0.006 -0.004)
(-0.009000000000000001 0.006 -0.003)
(-0.009000000000000001 0.006 -0.002)
(-0.009000000000000001 0.006 -0.001)
(-0.009000000000000001 0.006 0.0)
(-0.009000000000000001 0.006 0.001)
(-0.009000000000000001 0.006 0.002)
(-0.009000000000000001 0.006 0.003)
(-0.009000000000000001 0.006 0.004)
(-0.009000000000000001 0.006 0.005)
(-0.009000000000000001 0.006 0.006)
(-0.009000000000000001 0.006 0.007)
(-0.009000000000000001 0.006 0.008)
(-0.009000000000000001 0.006 0.009000000000000001)
(-0.009000000000000001 0.007 -0.009000000000000001)
(-0.009000000000000001 0.007 -0.008)
(-0.009000000000000001 0.007 -0.007)
(-0.009000000000000001 0.007 -0.006)
(-0.009000000000000001 0.007 -0.005)
(-0.009000000000000001 0.007 -0.004)
(-0.009000000000000001 0.007 -0.003)
(-0.009000000000000001 0.007 -0.002)
(-0.009000000000000001 0.007 -0.001)
(-0.009000000000000001 0.007 0.0)
(-0.009000000000000001 0.007 0.001)
(-0.009000000000000001 0.007 0.002)
(-0.009000000000000001 0.007 0.003)
(-0.009000000000000001 0.007 0.004)
(-0.009000000000000001 0.007 0.005)
(-0.009000000000000001 0.007 0.006)
(-0.009000000000000001 0.007 0.007)
(-0.009000000000000001 0.007 0.008)
(-0.009000000000000001 0.007 0.009000000000000001)
(-0.009000000000000001 0.008 -0.009000000000000001)
(-0.009000000000000001 0.008 -0.008)
(-0.009000000000000001 0.008 -0.007)
(-0.009000000000000001 0.008 -0.006)
(-0.009000000000000001 0.008 -0.005)
(-0.009000000000000001 0.008 -0.004)
(-0.009000000000000001 0.008 -0.003)
(-0.009000000000000001 0.008 -0.002)
(-0.009000000000000001 0.008 -0.001)
(-0.009000000000000001 0.008 0.0)
(-0.009000000000000001 0.008 0.001)
(-0.009000000000000001 0.008 0.002)
(-0.009000000000000001 0.008 0.003)
(-0.009000000000000001 0.008 0.004)
(-0.009000000000000001 0.008 0.005)
(-0.009000000000000001 0.008 0.006)
(-0.009000000000000001 0.008 0.007)
(-0.009000000000000001 0.008 0.008)
(-0.009000000000000001 0.008 0.009000000000000001)
(-0.009000000000000001 0.009000000000000001 -0.009000000000000001)
(-0.009000000000000001 0.009000000000000001 -0.008)
(-0.009000000000000001 0.009000000000000001 -0.007)
(-0.009000000000000001 0.009000000000000001 -0.006)
(-0.009000000000000001 0.009000000000000001 -0.005)
(-0.009000000000000001 0.009000000000000001 -0.004)
(-0.009000000000000001 0.009000000000000001 -0.003)
(-0.009000000000000001 0.009000000000000001 -0.002)
(-0.009000000000000001 0.009000000000000001 -0.001)
(-0.009000000000000001 0.009000000000000001 0.0)
(-0.009000000000000001 0.009000000000000001 0.001)
(-0.009000000000000001 0.009000000000000001 0.002)
(-0.009000000000000001 0.009000000000000001 0.003)
(-0.009000000000000001 0.009000000000000001 0.004)
(-0.009000000000000001 0.009000000000000001 0.005)
(-0.009000000000000001 0.009000000000000001 0.006)
(-0.009000000000000001 0.009000000000000001 0.007)
(-0.009000000000000001 0.009000000000000001 0.008)
(-0.009000000000000001 0.009000000000000001 0.009000000000000001)
(-0.009000000000000001 0.01 -0.009000000000000001)
(-0.009000000000000001 0.01 -0.008)
(-0.009000000000000001 0.01 -0.007)
(-0.009000000000000001 0.01 -0.006)
(-0.009000000000000001 0.01 -0.005)
(-0.009000000000000001 0.01 -0.004)
(-0.009000000000000001 0.01 -0.003)
(-0.009000000000000001 0.01 -0.002)
(-0.009000000000000001 0.01 -0.001)
(-0.009000000000000001 0.01 0.0)
(-0.009000000000000001 0.01 0.001)
(-0.009000000000000001 0.01 0.002)
(-0.009000000000000001 0.01 0.003)
(-0.009000000000000001 0.01 0.004)
(-0.009000000000000001 0.01 0.005)
(-0.009000000000000001 0.01 0.006)
(-0.009000000000000001 0.01 0.007)
(-0.009000000000000001 0.01 0.008)
(-0.009000000000000001 0.01 0.009000000000000001)
(-0.009000000000000001 0.011 -0.009000000000000001)
(-0.009000000000000001 0.011 -0.008)
(-0.009000000000000001 0.011 -0.007)
(-0.009000000000000001 0.011 -0.006)
(-0.009000000000000001 0.011 -0.005)
(-0.009000000000000001 0.011 -0.004)
(-0.009000000000000001 0.011 -0.003)
(-0.009000000000000001 0.011 -0.002)
(-0.009000000000000001 0.011 -0.001)
(-0.009000000000000001 0.011 0.0)
(-0.009000000000000001 0.011 0.001)
(-0.009000000000000001 0.011 0.002)
(-0.009000000000000001 0.011 0.003)
(-0.009000000000000001 0.011 0.004)
(-0.009000000000000001 0.011 0.005)
(-0.009000000000000001 0.011 0.006)
(-0.009000000000000001 0.011 0.007)
(-0.009000000000000001 0.011 0.008)
(-0.009000000000000001 0.011 0.009000000000000001)
(-0.009000000000000001 0.012 -0.009000000000000001)
(-0.009000000000000001 0.012 -0.008)
(-0.009000000000000001 0.012 -0.007)
(-0.009000000000000001 0.012 -0.006)
(-0.009000000000000001 0.012 -0.005)
(-0.009000000000000001 0.012 -0.004)
(-0.009000000000000001 0.012 -0.003)
(-0.009000000000000001 0.012 -0.002)
(-0.009000000000000001 0.012 -0.001)
(-0.009000000000000001 0.012 0.0)
(-0.009000000000000001 0.012 0.001)
(-0.009000000000000001 0.012 0.002)
(-0.009000000000000001 0.012 0.003)
(-0.009000000000000001 0.012 0.004)
(-0.009000000000000001 0.012 0.005)
(-0.009000000000000001 0.012 0.006)
(-0.009000000000000001 0.012 0.007)
(-0.009000000000000001 0.012 0.008)
(-0.009000000000000001 0.012 0.009000000000000001)
(-0.009000000000000001 0.013000000000000001 -0.009000000000000001)
(-0.009000000000000001 0.013000000000000001 -0.008)
(-0.009000000000000001 0.013000000000000001 -0.007)
(-0.009000000000000001 0.013000000000000001 -0.006)
(-0.009000000000000001 0.013000000000000001 -0.005)
(-0.009000000000000001 0.013000000000000001 -0.004)
(-0.009000000000000001 0.013000000000000001 -0.003)
(-0.009000000000000001 0.013000000000000001 -0.002)
(-0.009000000000000001 0.013000000000000001 -0.001)
(-0.009000000000000001 0.013000000000000001 0.0)
(-0.009000000000000001 0.013000000000000001 0.001)
(-0.009000000000000001 0.013000000000000001 0.002)
(-0.009000000000000001 0.013000000000000001 0.003)
(-0.009000000000000001 0.013000000000000001 0.004)
(-0.009000000000000001 0.013000000000000001 0.005)
(-0.009000000000000001 0.013000000000000001 0.006)
(-0.009000000000000001 0.013000000000000001 0.007)
(-0.009000000000000001 0.013000000000000001 0.008)
(-0.009000000000000001 0.013000000000000001 0.009000000000000001)
(-0.009000000000000001 0.014 -0.009000000000000001)
(-0.009000000000000001 0.014 -0.008)
(-0.009000000000000001 0.014 -0.007)
(-0.009000000000000001 0.014 -0.006)
(-0.009000000000000001 0.014 -0.005)
(-0.009000000000000001 0.014 -0.004)
(-0.009000000000000001 0.014 -0.003)
(-0.009000000000000001 0.014 -0.002)
(-0.009000000000000001 0.014 -0.001)
(-0.009000000000000001 0.014 0.0)
(-0.009000000000000001 0.014 0.001)
(-0.009000000000000001 0.014 0.002)
(-0.009000000000000001 0.014 0.003)
(-0.009000000000000001 0.014 0.004)
(-0.009000000000000001 0.014 0.005)
(-0.009000000000000001 0.014 0.006)
(-0.009000000000000001 0.014 0.007)
(-0.009000000000000001 0.014 0.008)
(-0.009000000000000001 0.014 0.009000000000000001)
(-0.009000000000000001 0.015 -0.009000000000000001)
(-0.009000000000000001 0.015 -0.008)
(-0.009000000000000001 0.015 -0.007)
(-0.009000000000000001 0.015 -0.006)
(-0.009000000000000001 0.015 -0.005)
(-0.009000000000000001 0.015 -0.004)
(-0.009000000000000001 0.015 -0.003)
(-0.009000000000000001 0.015 -0.002)
(-0.009000000000000001 0.015 -0.001)
(-0.009000000000000001 0.015 0.0)
(-0.009000000000000001 0.015 0.001)
(-0.009000000000000001 0.015 0.002)
(-0.009000000000000001 0.015 0.003)
(-0.009000000000000001 0.015 0.004)
(-0.009000000000000001 0.015 0.005)
(-0.009000000000000001 0.015 0.006)
(-0.009000000000000001 0.015 0.007)
(-0.009000000000000001 0.015 0.008)
(-0.009000000000000001 0.015 0.009000000000000001)
(-0.009000000000000001 0.016 -0.009000000000000001)
(-0.009000000000000001 0.016 -0.008)
(-0.009000000000000001 0.016 -0.007)
(-0.009000000000000001 0.016 -0.006)
(-0.009000000000000001 0.016 -0.005)
(-0.009000000000000001 0.016 -0.004)
(-0.009000000000000001 0.016 -0.003)
(-0.009000000000000001 0.016 -0.002)
(-0.009000000000000001 0.016 -0.001)
(-0.009000000000000001 0.016 0.0)
(-0.009000000000000001 0.016 0.001)
(-0.009000000000000001 0.016 0.002)
(-0.009000000000000001 0.016 0.003)
(-0.009000000000000001 0.016 0.004)
(-0.009000000000000001 0.016 0.005)
(-0.009000000000000001 0.016 0.006)
(-0.009000000000000001 0.016 0.007)
(-0.009000000000000001 0.016 0.008)
(-0.009000000000000001 0.016 0.009000000000000001)
(-0.009000000000000001 0.017 -0.009000000000000001)
(-0.009000000000000001 0.017 -0.008)
(-0.009000000000000001 0.017 -0.007)
(-0.009000000000000001 0.017 -0.006)
(-0.009000000000000001 0.017 -0.005)
(-0.009000000000000001 0.017 -0.004)
(-0.009000000000000001 0.017 -0.003)
(-0.009000000000000001 0.017 -0.002)
(-0.009000000000000001 0.017 -0.001)
(-0.009000000000000001 0.017 0.0)
(-0.009000000000000001 0.017 0.001)
(-0.009000000000000001 0.017 0.002)
(-0.009000000000000001 0.017 0.003)
(-0.009000000000000001 0.017 0.004)
(-0.009000000000000001 0.017 0.005)
(-0.009000000000000001 0.017 0.006)
(-0.009000000000000001 0.017 0.007)
(-0.009000000000000001 0.017 0.008)
(-0.009000000000000001 0.017 0.009000000000000001)
(-0.009000000000000001 0.018000000000000002 -0.009000000000000001)
(-0.009000000000000001 0.018000000000000002 -0.008)
(-0.009000000000000001 0.018000000000000002 -0.007)
(-0.009000000000000001 0.018000000000000002 -0.006)
(-0.009000000000000001 0.018000000000000002 -0.005)
(-0.009000000000000001 0.018000000000000002 -0.004)
(-0.009000000000000001 0.018000000000000002 -0.003)
(-0.009000000000000001 0.018000000000000002 -0.002)
(-0.009000000000000001 0.018000000000000002 -0.001)
(-0.009000000000000001 0.018000000000000002 0.0)
(-0.009000000000000001 0.018000000000000002 0.001)
(-0.009000000000000001 0.018000000000000002 0.002)
(-0.009000000000000001 0.018000000000000002 0.003)
(-0.009000000000000001 0.018000000000000002 0.004)
(-0.009000000000000001 0.018000000000000002 0.005)
(-0.009000000000000001 0.018000000000000002 0.006)
(-0.009000000000000001 0.018000000000000002 0.007)
(-0.009000000000000001 0.018000000000000002 0.008)
(-0.009000000000000001 0.018000000000000002 0.009000000000000001)
(-0.009000000000000001 0.019 -0.009000000000000001)
(-0.009000000000000001 0.019 -0.008)
(-0.009000000000000001 0.019 -0.007)
(-0.009000000000000001 0.019 -0.006)
(-0.009000000000000001 0.019 -0.005)
(-0.009000000000000001 0.019 -0.004)
(-0.009000000000000001 0.019 -0.003)
(-0.009000000000000001 0.019 -0.002)
(-0.009000000000000001 0.019 -0.001)
(-0.009000000000000001 0.019 0.0)
(-0.009000000000000001 0.019 0.001)
(-0.009000000000000001 0.019 0.002)
(-0.009000000000000001 0.019 0.003)
(-0.009000000000000001 0.019 0.004)
(-0.009000000000000001 0.019 0.005)
(-0.009000000000000001 0.019 0.006)
(-0.009000000000000001 0.019 0.007)
(-0.009000000000000001 0.019 0.008)
(-0.009000000000000001 0.019 0.009000000000000001)
(-0.008 0.001 -0.009000000000000001)
(-0.008 0.001 -0.008)
(-0.008 0.001 -0.007)
(-0.008 0.001 -0.006)
(-0.008 0.001 -0.005)
(-0.008 0.001 -0.004)
(-0.008 0.001 -0.003)
(-0.008 0.001 -0.002)
(-0.008 0.001 -0.001)
(-0.008 0.001 0.0)
(-0.008 0.001 0.001)
(-0.008 0.001 0.002)
(-0.008 0.001 0.003)
(-0.008 0.001 0.004)
(-0.008 0.001 0.005)
(-0.008 0.001 0.006)
(-0.008 0.001 0.007)
(-0.008 0.001 0.008)
(-0.008 0.001 0.009000000000000001)
(-0.008 0.002 -0.009000000000000001)
(-0.008 0.002 -0.008)
(-0.008 0.002 -0.007)
(-0.008 0.002 -0.006)
(-0.008 0.002 -0.005)
(-0.008 0.002 -0.004)
(-0.008 0.002 -0.003)
(-0.008 0.002 -0.002)
(-0.008 0.002 -0.001)
(-0.008 0.002 0.0)
(-0.008 0.002 0.001)
(-0.008 0.002 0.002)
(-0.008 0.002 0.003)
(-0.008 0.002 0.004)
(-0.008 0.002 0.005)
(-0.008 0.002 0.006)
(-0.008 0.002 0.007)
(-0.008 0.002 0.008)
(-0.008 0.002 0.009000000000000001)
(-0.008 0.003 -0.009000000000000001)
(-0.008 0.003 -0.008)
(-0.008 0.003 -0.007)
(-0.008 0.003 -0.006)
(-0.008 0.003 -0.005)
(-0.008 0.003 -0.004)
(-0.008 0.003 -0.003)
(-0.008 0.003 -0.002)
(-0.008 0.003 -0.001)
(-0.008 0.003 0.0)
(-0.008 0.003 0.001)
(-0.008 0.003 0.002)
(-0.008 0.003 0.003)
(-0.008 0.003 0.004)
(-0.008 0.003 0.005)
(-0.008 0.003 0.006)
(-0.008 0.003 0.007)
(-0.008 0.003 0.008)
(-0.008 0.003 0.009000000000000001)
(-0.008 0.004 -0.009000000000000001)
(-0.008 0.004 -0.008)
(-0.008 0.004 -0.007)
(-0.008 0.004 -0.006)
(-0.008 0.004 -0.005)
(-0.008 0.004 -0.004)
(-0.008 0.004 -0.003)
(-0.008 0.004 -0.002)
(-0.008 0.004 -0.001)
(-0.008 0.004 0.0)
(-0.008 0.004 0.001)
(-0.008 0.004 0.002)
(-0.008 0.004 0.003)
(-0.008 0.004 0.004)
(-0.008 0.004 0.005)
(-0.008 0.004 0.006)
(-0.008 0.004 0.007)
(-0.008 0.004 0.008)
(-0.008 0.004 0.009000000000000001)
(-0.008 0.005 -0.009000000000000001)
(-0.008 0.005 -0.008)
(-0.008 0.005 -0.007)
(-0.008 0.005 -0.006)
(-0.008 0.005 -0.005)
(-0.008 0.005 -0.004)
(-0.008 0.005 -0.003)
(-0.008 0.005 -0.002)
(-0.008 0.005 -0.001)
(-0.008 0.005 0.0)
(-0.008 0.005 0.001)
(-0.008 0.005 0.002)
(-0.008 0.005 0.003)
(-0.008 0.005 0.004)
(-0.008 0.005 0.005)
(-0.008 0.005 0.006)
(-0.008 0.005 0.007)
(-0.008 0.005 0.008)
(-0.008 0.005 0.009000000000000001)
(-0.008 0.006 -0.009000000000000001)
(-0.008 0.006 -0.008)
(-0.008 0.006 -0.007)
(-0.008 0.006 -0.006)
(-0.008 0.006 -0.005)
(-0.008 0.006 -0.004)
(-0.008 0.006 -0.003)
(-0.008 0.006 -0.002)
(-0.008 0.006 -0.001)
(-0.008 0.006 0.0)
(-0.008 0.006 0.001)
(-0.008 0.006 0.002)
(-0.008 0.006 0.003)
(-0.008 0.006 0.004)
(-0.008 0.006 0.005)
(-0.008 0.006 0.006)
(-0.008 0.006 0.007)
(-0.008 0.006 0.008)
(-0.008 0.006 0.009000000000000001)
(-0.008 0.007 -0.009000000000000001)
(-0.008 0.007 -0.008)
(-0.008 0.007 -0.007)
(-0.008 0.007 -0.006)
(-0.008 0.007 -0.005)
(-0.008 0.007 -0.004)
(-0.008 0.007 -0.003)
(-0.008 0.007 -0.002)
(-0.008 0.007 -0.001)
(-0.008 0.007 0.0)
(-0.008 0.007 0.001)
(-0.008 0.007 0.002)
(-0.008 0.007 0.003)
(-0.008 0.007 0.004)
(-0.008 0.007 0.005)
(-0.008 0.007 0.006)
(-0.008 0.007 0.007)
(-0.008 0.007 0.008)
(-0.008 0.007 0.009000000000000001)
(-0.008 0.008 -0.009000000000000001)
(-0.008 0.008 -0.008)
(-0.008 0.008 -0.007)
(-0.008 0.008 -0.006)
(-0.008 0.008 -0.005)
(-0.008 0.008 -0.004)
(-0.008 0.008 -0.003)
(-0.008 0.008 -0.002)
(-0.008 0.008 -0.001)
(-0.008 0.008 0.0)
(-0.008 0.008 0.001)
(-0.008 0.008 0.002)
(-0.008 0.008 0.003)
(-0.008 0.008 0.004)
(-0.008 0.008 0.005)
(-0.008 0.008 0.006)
(-0.008 0.008 0.007)
(-0.008 0.008 0.008)
(-0.008 0.008 0.009000000000000001)
(-0.008 0.009000000000000001 -0.009000000000000001)
(-0.008 0.009000000000000001 -0.008)
(-0.008 0.009000000000000001 -0.007)
(-0.008 0.009000000000000001 -0.006)
(-0.008 0.009000000000000001 -0.005)
(-0.008 0.009000000000000001 -0.004)
(-0.008 0.009000000000000001 -0.003)
(-0.008 0.009000000000000001 -0.002)
(-0.008 0.009000000000000001 -0.001)
(-0.008 0.009000000000000001 0.0)
(-0.008 0.009000000000000001 0.001)
(-0.008 0.009000000000000001 0.002)
(-0.008 0.009000000000000001 0.003)
(-0.008 0.009000000000000001 0.004)
(-0.008 0.009000000000000001 0.005)
(-0.008 0.009000000000000001 0.006)
(-0.008 0.009000000000000001 0.007)
(-0.008 0.009000000000000001 0.008)
(-0.008 0.009000000000000001 0.009000000000000001)
(-0.008 0.01 -0.009000000000000001)
(-0.008 0.01 -0.008)
(-0.008 0.01 -0.007)
(-0.008 0.01 -0.006)
(-0.008 0.01 -0.005)
(-0.008 0.01 -0.004)
(-0.008 0.01 -0.003)
(-0.008 0.01 -0.002)
(-0.008 0.01 -0.001)
(-0.008 0.01 0.0)
(-0.008 0.01 0.001)
(-0.008 0.01 0.002)
(-0.008 0.01 0.003)
(-0.008 0.01 0.004)
(-0.008 0.01 0.005)
(-0.008 0.01 0.006)
(-0.008 0.01 0.007)
(-0.008 0.01 0.008)
(-0.008 0.01 0.009000000000000001)
(-0.008 0.011 -0.009000000000000001)
(-0.008 0.011 -0.008)
(-0.008 0.011 -0.007)
(-0.008 0.011 -0.006)
(-0.008 0.011 -0.005)
(-0.008 0.011 -0.004)
(-0.008 0.011 -0.003)
(-0.008 0.011 -0.002)
(-0.008 0.011 -0.001)
(-0.008 0.011 0.0)
(-0.008 0.011 0.001)
(-0.008 0.011 0.002)
(-0.008 0.011 0.003)
(-0.008 0.011 0.004)
(-0.008 0.011 0.005)
(-0.008 0.011 0.006)
(-0.008 0.011 0.007)
(-0.008 0.011 0.008)
(-0.008 0.011 0.009000000000000001)
(-0.008 0.012 -0.009000000000000001)
(-0.008 0.012 -0.008)
(-0.008 0.012 -0.007)
(-0.008 0.012 -0.006)
(-0.008 0.012 -0.005)
(-0.008 0.012 -0.004)
(-0.008 0.012 -0.003)
(-0.008 0.012 -0.002)
(-0.008 0.012 -0.001)
(-0.008 0.012 0.0)
(-0.008 0.012 0.001)
(-0.008 0.012 0.002)
(-0.008 0.012 0.003)
(-0.008 0.012 0.004)
(-0.008 0.012 0.005)
(-0.008 0.012 0.006)
(-0.008 0.012 0.007)
(-0.008 0.012 0.008)
(-0.008 0.012 0.009000000000000001)
(-0.008 0.013000000000000001 -0.009000000000000001)
(-0.008 0.013000000000000001 -0.008)
(-0.008 0.013000000000000001 -0.007)
(-0.008 0.013000000000000001 -0.006)
(-0.008 0.013000000000000001 -0.005)
(-0.008 0.013000000000000001 -0.004)
(-0.008 0.013000000000000001 -0.003)
(-0.008 0.013000000000000001 -0.002)
(-0.008 0.013000000000000001 -0.001)
(-0.008 0.013000000000000001 0.0)
(-0.008 0.013000000000000001 0.001)
(-0.008 0.013000000000000001 0.002)
(-0.008 0.013000000000000001 0.003)
(-0.008 0.013000000000000001 0.004)
(-0.008 0.013000000000000001 0.005)
(-0.008 0.013000000000000001 0.006)
(-0.008 0.013000000000000001 0.007)
(-0.008 0.013000000000000001 0.008)
(-0.008 0.013000000000000001 0.009000000000000001)
(-0.008 0.014 -0.009000000000000001)
(-0.008 0.014 -0.008)
(-0.008 0.014 -0.007)
(-0.008 0.014 -0.006)
(-0.008 0.014 -0.005)
(-0.008 0.014 -0.004)
(-0.008 0.014 -0.003)
(-0.008 0.014 -0.002)
(-0.008 0.014 -0.001)
(-0.008 0.014 0.0)
(-0.008 0.014 0.001)
(-0.008 0.014 0.002)
(-0.008 0.014 0.003)
(-0.008 0.014 0.004)
(-0.008 0.014 0.005)
(-0.008 0.014 0.006)
(-0.008 0.014 0.007)
(-0.008 0.014 0.008)
(-0.008 0.014 0.009000000000000001)
(-0.008 0.015 -0.009000000000000001)
(-0.008 0.015 -0.008)
(-0.008 0.015 -0.007)
(-0.008 0.015 -0.006)
(-0.008 0.015 -0.005)
(-0.008 0.015 -0.004)
(-0.008 0.015 -0.003)
(-0.008 0.015 -0.002)
(-0.008 0.015 -0.001)
(-0.008 0.015 0.0)
(-0.008 0.015 0.001)
(-0.008 0.015 0.002)
(-0.008 0.015 0.003)
(-0.008 0.015 0.004)
(-0.008 0.015 0.005)
(-0.008 0.015 0.006)
(-0.008 0.015 0.007)
(-0.008 0.015 0.008)
(-0.008 0.015 0.009000000000000001)
(-0.008 0.016 -0.009000000000000001)
(-0.008 0.016 -0.008)
(-0.008 0.016 -0.007)
(-0.008 0.016 -0.006)
(-0.008 0.016 -0.005)
(-0.008 0.016 -0.004)
(-0.008 0.016 -0.003)
(-0.008 0.016 -0.002)
(-0.008 0.016 -0.001)
(-0.008 0.016 0.0)
(-0.008 0.016 0.001)
(-0.008 0.016 0.002)
(-0.008 0.016 0.003)
(-0.008 0.016 0.004)
(-0.008 0.016 0.005)
(-0.008 0.016 0.006)
(-0.008 0.016 0.007)
(-0.008 0.016 0.008)
(-0.008 0.016 0.009000000000000001)
(-0.008 0.017 -0.009000000000000001)
(-0.008 0.017 -0.008)
(-0.008 0.017 -0.007)
(-0.008 0.017 -0.006)
(-0.008 0.017 -0.005)
(-0.008 0.017 -0.004)
(-0.008 0.017 -0.003)
(-0.008 0.017 -0.002)
(-0.008 0.017 -0.001)
(-0.008 0.017 0.0)
(-0.008 0.017 0.001)
(-0.008 0.017 0.002)
(-0.008 0.017 0.003)
(-0.008 0.017 0.004)
(-0.008 0.017 0.005)
(-0.008 0.017 0.006)
(-0.008 0.017 0.007)
(-0.008 0.017 0.008)
(-0.008 0.017 0.009000000000000001)
(-0.008 0.018000000000000002 -0.009000000000000001)
(-0.008 0.018000000000000002 -0.008)
(-0.008 0.018000000000000002 -0.007)
(-0.008 0.018000000000000002 -0.006)
(-0.008 0.018000000000000002 -0.005)
(-0.008 0.018000000000000002 -0.004)
(-0.008 0.018000000000000002 -0.003)
(-0.008 0.018000000000000002 -0.002)
(-0.008 0.018000000000000002 -0.001)
(-0.008 0.018000000000000002 0.0)
(-0.008 0.018000000000000002 0.001)
(-0.008 0.018000000000000002 0.002)
(-0.008 0.018000000000000002 0.003)
(-0.008 0.018000000000000002 0.004)
(-0.008 0.018000000000000002 0.005)
(-0.008 0.018000000000000002 0.006)
(-0.008 0.018000000000000002 0.007)
(-0.008 0.018000000000000002 0.008)
(-0.008 0.018000000000000002 0.009000000000000001)
(-0.008 0.019 -0.009000000000000001)
(-0.008 0.019 -0.008)
(-0.008 0.019 -0.007)
(-0.008 0.019 -0.006)
(-0.008 0.019 -0.005)
(-0.008 0.019 -0.004)
(-0.008 0.019 -0.003)
(-0.008 0.019 -0.002)
(-0.008 0.019 -0.001)
(-0.008 0.019 0.0)
(-0.008 0.019 0.001)
(-0.008 0.019 0.002)
(-0.008 0.019 0.003)
(-0.008 0.019 0.004)
(-0.008 0.019 0.005)
(-0.008 0.019 0.006)
(-0.008 0.019 0.007)
(-0.008 0.019 0.008)
(-0.008 0.019 0.009000000000000001)
(-0.007 0.001 -0.009000000000000001)
(-0.007 0.001 -0.008)
(-0.007 0.001 -0.007)
(-0.007 0.001 -0.006)
(-0.007 0.001 -0.005)
(-0.007 0.001 -0.004)
(-0.007 0.001 -0.003)
(-0.007 0.001 -0.002)
(-0.007 0.001 -0.001)
(-0.007 0.001 0.0)
(-0.007 0.001 0.001)
(-0.007 0.001 0.002)
(-0.007 0.001 0.003)
(-0.007 0.001 0.004)
(-0.007 0.001 0.005)
(-0.007 0.001 0.006)
(-0.007 0.001 0.007)
(-0.007 0.001 0.008)
(-0.007 0.001 0.009000000000000001)
(-0.007 0.002 -0.009000000000000001)
(-0.007 0.002 -0.008)
(-0.007 0.002 -0.007)
(-0.007 0.002 -0.006)
(-0.007 0.002 -0.005)
(-0.007 0.002 -0.004)
(-0.007 0.002 -0.003)
(-0.007 0.002 -0.002)
(-0.007 0.002 -0.001)
(-0.007 0.002 0.0)
(-0.007 0.002 0.001)
(-0.007 0.002 0.002)
(-0.007 0.002 0.003)
(-0.007 0.002 0.004)
(-0.007 0.002 0.005)
(-0.007 0.002 0.006)
(-0.007 0.002 0.007)
(-0.007 0.002 0.008)
(-0.007 0.002 0.009000000000000001)
(-0.007 0.003 -0.009000000000000001)
(-0.007 0.003 -0.008)
(-0.007 0.003 -0.007)
(-0.007 0.003 -0.006)
(-0.007 0.003 -0.005)
(-0.007 0.003 -0.004)
(-0.007 0.003 -0.003)
(-0.007 0.003 -0.002)
(-0.007 0.003 -0.001)
(-0.007 0.003 0.0)
(-0.007 0.003 0.001)
(-0.007 0.003 0.002)
(-0.007 0.003 0.003)
(-0.007 0.003 0.004)
(-0.007 0.003 0.005)
(-0.007 0.003 0.006)
(-0.007 0.003 0.007)
(-0.007 0.003 0.008)
(-0.007 0.003 0.009000000000000001)
(-0.007 0.004 -0.009000000000000001)
(-0.007 0.004 -0.008)
(-0.007 0.004 -0.007)
(-0.007 0.004 -0.006)
(-0.007 0.004 -0.005)
(-0.007 0.004 -0.004)
(-0.007 0.004 -0.003)
(-0.007 0.004 -0.002)
(-0.007 0.004 -0.001)
(-0.007 0.004 0.0)
(-0.007 0.004 0.001)
(-0.007 0.004 0.002)
(-0.007 0.004 0.003)
(-0.007 0.004 0.004)
(-0.007 0.004 0.005)
(-0.007 0.004 0.006)
(-0.007 0.004 0.007)
(-0.007 0.004 0.008)
(-0.007 0.004 0.009000000000000001)
(-0.007 0.005 -0.009000000000000001)
(-0.007 0.005 -0.008)
(-0.007 0.005 -0.007)
(-0.007 0.005 -0.006)
(-0.007 0.005 -0.005)
(-0.007 0.005 -0.004)
(-0.007 0.005 -0.003)
(-0.007 0.005 -0.002)
(-0.007 0.005 -0.001)
(-0.007 0.005 0.0)
(-0.007 0.005 0.001)
(-0.007 0.005 0.002)
(-0.007 0.005 0.003)
(-0.007 0.005 0.004)
(-0.007 0.005 0.005)
(-0.007 0.005 0.006)
(-0.007 0.005 0.007)
(-0.007 0.005 0.008)
(-0.007 0.005 0.009000000000000001)
(-0.007 0.006 -0.009000000000000001)
(-0.007 0.006 -0.008)
(-0.007 0.006 -0.007)
(-0.007 0.006 -0.006)
(-0.007 0.006 -0.005)
(-0.007 0.006 -0.004)
(-0.007 0.006 -0.003)
(-0.007 0.006 -0.002)
(-0.007 0.006 -0.001)
(-0.007 0.006 0.0)
(-0.007 0.006 0.001)
(-0.007 0.006 0.002)
(-0.007 0.006 0.003)
(-0.007 0.006 0.004)
(-0.007 0.006 0.005)
(-0.007 0.006 0.006)
(-0.007 0.006 0.007)
(-0.007 0.006 0.008)
(-0.007 0.006 0.009000000000000001)
(-0.007 0.007 -0.009000000000000001)
(-0.007 0.007 -0.008)
(-0.007 0.007 -0.007)
(-0.007 0.007 -0.006)
(-0.007 0.007 -0.005)
(-0.007 0.007 -0.004)
(-0.007 0.007 -0.003)
(-0.007 0.007 -0.002)
(-0.007 0.007 -0.001)
(-0.007 0.007 0.0)
(-0.007 0.007 0.001)
(-0.007 0.007 0.002)
(-0.007 0.007 0.003)
(-0.007 0.007 0.004)
(-0.007 0.007 0.005)
(-0.007 0.007 0.006)
(-0.007 0.007 0.007)
(-0.007 0.007 0.008)
(-0.007 0.007 0.009000000000000001)
(-0.007 0.008 -0.009000000000000001)
(-0.007 0.008 -0.008)
(-0.007 0.008 -0.007)
(-0.007 0.008 -0.006)
(-0.007 0.008 -0.005)
(-0.007 0.008 -0.004)
(-0.007 0.008 -0.003)
(-0.007 0.008 -0.002)
(-0.007 0.008 -0.001)
(-0.007 0.008 0.0)
(-0.007 0.008 0.001)
(-0.007 0.008 0.002)
(-0.007 0.008 0.003)
(-0.007 0.008 0.004)
(-0.007 0.008 0.005)
(-0.007 0.008 0.006)
(-0.007 0.008 0.007)
(-0.007 0.008 0.008)
(-0.007 0.008 0.009000000000000001)
(-0.007 0.009000000000000001 -0.009000000000000001)
(-0.007 0.009000000000000001 -0.008)
(-0.007 0.009000000000000001 -0.007)
(-0.007 0.009000000000000001 -0.006)
(-0.007 0.009000000000000001 -0.005)
(-0.007 0.009000000000000001 -0.004)
(-0.007 0.009000000000000001 -0.003)
(-0.007 0.009000000000000001 -0.002)
(-0.007 0.009000000000000001 -0.001)
(-0.007 0.009000000000000001 0.0)
(-0.007 0.009000000000000001 0.001)
(-0.007 0.009000000000000001 0.002)
(-0.007 0.009000000000000001 0.003)
(-0.007 0.009000000000000001 0.004)
(-0.007 0.009000000000000001 0.005)
(-0.007 0.009000000000000001 0.006)
(-0.007 0.009000000000000001 0.007)
(-0.007 0.009000000000000001 0.008)
(-0.007 0.009000000000000001 0.009000000000000001)
(-0.007 0.01 -0.009000000000000001)
(-0.007 0.01 -0.008)
(-0.007 0.01 -0.007)
(-0.007 0.01 -0.006)
(-0.007 0.01 -0.005)
(-0.007 0.01 -0.004)
(-0.007 0.01 -0.003)
(-0.007 0.01 -0.002)
(-0.007 0.01 -0.001)
(-0.007 0.01 0.0)
(-0.007 0.01 0.001)
(-0.007 0.01 0.002)
(-0.007 0.01 0.003)
(-0.007 0.01 0.004)
(-0.007 0.01 0.005)
(-0.007 0.01 0.006)
(-0.007 0.01 0.007)
(-0.007 0.01 0.008)
(-0.007 0.01 0.009000000000000001)
(-0.007 0.011 -0.009000000000000001)
(-0.007 0.011 -0.008)
(-0.007 0.011 -0.007)
(-0.007 0.011 -0.006)
(-0.007 0.011 -0.005)
(-0.007 0.011 -0.004)
(-0.007 0.011 -0.003)
(-0.007 0.011 -0.002)
(-0.007 0.011 -0.001)
(-0.007 0.011 0.0)
(-0.007 0.011 0.001)
(-0.007 0.011 0.002)
(-0.007 0.011 0.003)
(-0.007 0.011 0.004)
(-0.007 0.011 0.005)
(-0.007 0.011 0.006)
(-0.007 0.011 0.007)
(-0.007 0.011 0.008)
(-0.007 0.011 0.009000000000000001)
(-0.007 0.012 -0.009000000000000001)
(-0.007 0.012 -0.008)
(-0.007 0.012 -0.007)
(-0.007 0.012 -0.006)
(-0.007 0.012 -0.005)
(-0.007 0.012 -0.004)
(-0.007 0.012 -0.003)
(-0.007 0.012 -0.002)
(-0.007 0.012 -0.001)
(-0.007 0.012 0.0)
(-0.007 0.012 0.001)
(-0.007 0.012 0.002)
(-0.007 0.012 0.003)
(-0.007 0.012 0.004)
(-0.007 0.012 0.005)
(-0.007 0.012 0.006)
(-0.007 0.012 0.007)
(-0.007 0.012 0.008)
(-0.007 0.012 0.009000000000000001)
(-0.007 0.013000000000000001 -0.009000000000000001)
(-0.007 0.013000000000000001 -0.008)
(-0.007 0.013000000000000001 -0.007)
(-0.007 0.013000000000000001 -0.006)
(-0.007 0.013000000000000001 -0.005)