/*--------------------------------*- C++ -*----------------------------------*\
  =========                 |
  \\      /  F ield         | OpenFOAM: The Open Source CFD Toolbox
   \\    /   O peration     | Website:  https://openfoam.org
    \\  /    A nd           | Version:  dev
     \\/     M anipulation  |
\*---------------------------------------------------------------------------*/
FoamFile
{
    version     2.0;
    format      binary;
    class       dictionary;
    location    "constant";
    object      SprayCloudProperties;
}
// * * * * * * * * * * * * * * * * * * * * * * * * * * * * * * * * * * * * * //

solution
{
    active          true;
    coupled         true;
    transient       yes;
    cellValueSourceCorrection on;
    maxCo           0.3;

    sourceTerms
    {
        schemes
        {
            rho             explicit 1;
            U               explicit 1;
            Yi              explicit 1;
            h               explicit 1;
            radiation       explicit 1;
        }
    }

    interpolationSchemes
    {
        rho             cell;
        U               cellPoint;
        thermo:mu       cell;
        T               cell;
        Cp              cell;
        kappa           cell;
        p               cell;
    }

    integrationSchemes
    {
        U               Euler;
        T               analytical;
    }
}


constantProperties
{
    T0              300;

    // place holders for rho0 and Cp0
    // - reset from liquid properties using T0
    rho0            1000;
    Cp0             4187;

    constantVolume  false;
}


subModels
{
    particleForces
    {
        sphereDrag;
    }

    injectionModels
    {
        model1
        {
            type            manualInjection;
            SOI             0;
            massTotal       6.0e-6; //???
            parcelBasisType mass;
	        nParticle	    1; //???
            positionsFile   "SDMpositionsFile";
	        U0		    (0 0 0); //???

            sizeDistribution
            {
                type        RosinRammler;

                RosinRammlerDistribution
                {
                    minValue        1e-06;
                    maxValue        0.00015;
                    d               0.00015;
                    n               3;
                }
            }
        }
    }

    dispersionModel none;

    patchInteractionModel standardWallInteraction;

    heatTransferModel RanzMarshall;

    compositionModel singlePhaseMixture;

    phaseChangeModel none; //liquidEvaporationBoil;

    surfaceFilmModel none;

    atomizationModel none;

    breakupModel    none; //ReitzDiwakar; // ReitzKHRT;

    // SDM
    stochasticCollisionModel SDM;
    SDMCoeffs
    {
	coalescence off;
    }
    // SDM - end

    radiation       off;

    standardWallInteractionCoeffs
    {
        type            rebound;
    }

    RanzMarshallCoeffs
    {
        BirdCorrection  true;
    }

    singlePhaseMixtureCoeffs
    {
        phases
        (
            liquid
            {
                H20               1;
            }
        );
    }

/*
    liquidEvaporationBoilCoeffs
    {
        enthalpyTransfer enthalpyDifference;

        activeLiquids    ( C7H16 );
    }
*/

/*
    ReitzDiwakarCoeffs
    {
        solveOscillationEq yes;
        Cbag            6;
        Cb              0.785;
        Cstrip          0.5;
        Cs              10;
    }
*/

/*
    ReitzKHRTCoeffs
    {
        solveOscillationEq yes;
        B0              0.61;
        B1              40;
        Ctau            1;
        CRT             0.1;
        msLimit         0.2;
        WeberLimit      6;
    }
*/
    TABCoeffs
    {
        y0              0;
        yDot0           0;
        Cmu             10;
        Comega          8;
        WeCrit          12;
    }
}


cloudFunctions
{}


// ************************************************************************* //